                                  MODFLOW-2005     
      U.S. GEOLOGICAL SURVEY MODULAR FINITE-DIFFERENCE GROUND-WATER FLOW MODEL
                            VERSION 1.12.00 2/3/2017

 LIST FILE: my_model.list
                         UNIT    2

 OPENING my_model.dis
 FILE TYPE:DIS   UNIT   11   STATUS:OLD    
 FORMAT:FORMATTED              ACCESS:SEQUENTIAL          

 OPENING my_model.bas
 FILE TYPE:BAS6   UNIT   13   STATUS:OLD    
 FORMAT:FORMATTED              ACCESS:SEQUENTIAL          

 OPENING my_model.lpf
 FILE TYPE:LPF   UNIT   15   STATUS:OLD    
 FORMAT:FORMATTED              ACCESS:SEQUENTIAL          

 OPENING my_model.rch
 FILE TYPE:RCH   UNIT   19   STATUS:OLD    
 FORMAT:FORMATTED              ACCESS:SEQUENTIAL          

 OPENING my_model.riv
 FILE TYPE:RIV   UNIT   18   STATUS:OLD    
 FORMAT:FORMATTED              ACCESS:SEQUENTIAL          

 OPENING my_model.wel
 FILE TYPE:WEL   UNIT   20   STATUS:OLD    
 FORMAT:FORMATTED              ACCESS:SEQUENTIAL          

 OPENING my_model.oc
 FILE TYPE:OC   UNIT   14   STATUS:OLD    
 FORMAT:FORMATTED              ACCESS:SEQUENTIAL          

 OPENING my_model.pcg
 FILE TYPE:PCG   UNIT   27   STATUS:OLD    
 FORMAT:FORMATTED              ACCESS:SEQUENTIAL          

 OPENING my_model.cbc
 FILE TYPE:DATA(BINARY)   UNIT    1   STATUS:REPLACE
 FORMAT:BINARY                 ACCESS:SEQUENTIAL          

 OPENING my_model.hds
 FILE TYPE:DATA(BINARY)   UNIT   51   STATUS:REPLACE
 FORMAT:BINARY                 ACCESS:SEQUENTIAL          

 BAS -- BASIC PACKAGE, VERSION 7, 5/2/2005 INPUT READ FROM UNIT   13
 
 MODFLOW was compiled using mixed precision
 Precision of REAL variables:           6
 Precision of DOUBLE PRECISION variables:          15

 DISCRETIZATION INPUT DATA READ FROM UNIT   11
 # DIS package for  MODFLOW-2005, generated by Flopy.
    1 LAYERS       250 ROWS       390 COLUMNS
    1 STRESS PERIOD(S) IN SIMULATION
 MODEL TIME UNIT IS DAYS
 MODEL LENGTH UNIT IS FEET
  Confining bed flag for each layer:
   0

                     DELR =   1000.00    

                     DELC =   1000.00    

 TOP ELEVATION OF LAYER 1 =   0.00000    

   MODEL LAYER BOTTOM EL. =  -50.0000     FOR LAYER   1


 STRESS PERIOD     LENGTH       TIME STEPS     MULTIPLIER FOR DELT    SS FLAG
 ----------------------------------------------------------------------------
        1         1.000000          1                    1.000         SS

 STEADY-STATE SIMULATION



 
 # BAS6 package for  MODFLOW-2005, generated by Flopy.                           
 THE FREE FORMAT OPTION HAS BEEN SELECTED



                     BOUNDARY ARRAY FOR LAYER   1
 READING ON UNIT   13 WITH FORMAT: (390I10)            

 AQUIFER HEAD WILL BE SET TO  -999.99     AT ALL NO-FLOW NODES (IBOUND=0).



                       INITIAL HEAD FOR LAYER   1
 READING ON UNIT   13 WITH FORMAT: (390E15.6)          
 # OC package for  MODFLOW-2005, generated by Flopy.

 OUTPUT CONTROL IS SPECIFIED ONLY AT TIME STEPS FOR WHICH OUTPUT IS DESIRED
 COMPACT CELL-BY-CELL BUDGET FILES WILL BE WRITTEN
 AUXILIARY DATA WILL BE SAVED IN CELL-BY-CELL BUDGET FILES
 HEAD PRINT FORMAT CODE IS   0    DRAWDOWN PRINT FORMAT CODE IS   0
 HEADS WILL BE SAVED ON UNIT   51    DRAWDOWNS WILL BE SAVED ON UNIT    0

 LPF -- LAYER-PROPERTY FLOW PACKAGE, VERSION 7, 5/2/2005
         INPUT READ FROM UNIT   15
 # LPF package for  MODFLOW-2005, generated by Flopy.
 CELL-BY-CELL FLOWS WILL BE SAVED ON UNIT    1
 HEAD AT CELLS THAT CONVERT TO DRY= -1.00000E+30
 No named parameters

   LAYER FLAGS:
 LAYER       LAYTYP        LAYAVG         CHANI        LAYVKA        LAYWET
 ---------------------------------------------------------------------------
    1             1             0     1.000E+00             0             0

   INTERPRETATION OF LAYER FLAGS:
                        INTERBLOCK     HORIZONTAL    DATA IN
         LAYER TYPE   TRANSMISSIVITY   ANISOTROPY   ARRAY VKA   WETTABILITY
 LAYER      (LAYTYP)      (LAYAVG)       (CHANI)      (LAYVKA)      (LAYWET)
 ---------------------------------------------------------------------------
    1   CONVERTIBLE      HARMONIC     1.000E+00    VERTICAL K  NON-WETTABLE

 WETTING CAPABILITY IS NOT ACTIVE IN ANY LAYER



              HYD. COND. ALONG ROWS FOR LAYER   1
 READING ON UNIT   15 WITH FORMAT: (390E15.6)          



                VERTICAL HYD. COND. FOR LAYER   1
 READING ON UNIT   15 WITH FORMAT: (390E15.6)          

 WEL -- WELL PACKAGE, VERSION 7, 5/2/2005 INPUT READ FROM UNIT   20
 # WEL package for  MODFLOW-2005, generated by Flopy.
 No named parameters
 MAXIMUM OF      1 ACTIVE WELLS AT ONE TIME


     0 Well parameters

 RIV -- RIVER PACKAGE, VERSION 7, 5/2/2005 INPUT READ FROM UNIT   18
 # RIV package for  MODFLOW-2005, generated by Flopy.
 No named parameters
 MAXIMUM OF   2175 ACTIVE RIVER REACHES AT ONE TIME


     0 River parameters

 RCH -- RECHARGE PACKAGE, VERSION 7, 5/2/2005 INPUT READ FROM UNIT   19
 # RCH package for  MODFLOW-2005, generated by Flopy.
 No named parameters
 OPTION 3 -- RECHARGE TO HIGHEST ACTIVE NODE IN EACH VERTICAL COLUMN


     0 Recharge parameters

 PCG -- CONJUGATE-GRADIENT SOLUTION PACKAGE, VERSION 7, 5/2/2005
 # PCG package for  MODFLOW-2005, generated by Flopy.
 MAXIMUM OF     50 CALLS OF SOLUTION ROUTINE
 MAXIMUM OF     30 INTERNAL ITERATIONS PER CALL TO SOLUTION ROUTINE
 MATRIX PRECONDITIONING TYPE :    1



                                    SOLUTION BY THE CONJUGATE-GRADIENT METHOD
                                   -------------------------------------------
                    MAXIMUM NUMBER OF CALLS TO PCG ROUTINE =       50
                        MAXIMUM ITERATIONS PER CALL TO PCG =       30
                               MATRIX PRECONDITIONING TYPE =        1
        RELAXATION FACTOR (ONLY USED WITH PRECOND. TYPE 1) =    0.10000E+01
 PARAMETER OF POLYNOMIAL PRECOND. = 2 (2) OR IS CALCULATED :        0
                         HEAD CHANGE CRITERION FOR CLOSURE =    0.10000E-04
                     RESIDUAL CHANGE CRITERION FOR CLOSURE =    0.10000E-04
            PCG HEAD AND RESIDUAL CHANGE PRINTOUT INTERVAL =      999
     PRINTING FROM SOLVER IS LIMITED(1) OR SUPPRESSED (>1) =        3
                            STEADY-STATE DAMPING PARAMETER =    0.10000E+01
                               TRANSIENT DAMPING PARAMETER =    0.10000E+01
1
                            STRESS PERIOD NO.    1, LENGTH =   1.000000    
                            -----------------------------------------------

                              NUMBER OF TIME STEPS =     1

                               MULTIPLIER FOR DELT =     1.000

                            INITIAL TIME STEP SIZE =   1.000000    

 WELL NO.  LAYER   ROW   COL   STRESS RATE         
 --------------------------------------------------
      1      1     11     21     -0.1330E+06

      1 WELL 

 REACH NO.  LAYER   ROW   COL     STAGE      CONDUCTANCE     BOTTOM EL.         
 -------------------------------------------------------------------------------
      1      1      2     72       508.8           5000.           505.8    
      2      1      2     74       508.8           5000.           505.8    
      3      1      2    195       586.4           5000.           583.4    
      4      1      2    247       446.6           5000.           443.6    
      5      1      2    250       445.8           5000.           442.8    
      6      1      2    260       445.8           5000.           442.8    
      7      1      2    270       454.0           5000.           451.0    
      8      1      2    272       455.0           5000.           452.0    
      9      1      2    284       504.8           5000.           501.8    
     10      1      2    287       506.6           5000.           503.6    
     11      1      2    290       512.4           5000.           509.4    
     12      1      2    324       739.9           5000.           736.9    
     13      1      2    359       648.3           5000.           645.3    
     14      1      2    362       647.6           5000.           644.6    
     15      1      2    370       627.1           5000.           624.1    
     16      1      2    372       627.7           5000.           624.7    
     17      1      2    375       628.2           5000.           625.2    
     18      1      2    377       628.4           5000.           625.4    
     19      1      2    387       638.6           5000.           635.6    
     20      1      2    390       638.6           5000.           635.6    
     21      1      5     70       508.8           5000.           505.8    
     22      1      5     72       508.8           5000.           505.8    
     23      1      5    192       573.1           5000.           570.1    
     24      1      5    195       576.7           5000.           573.7    
     25      1      5    250       445.8           5000.           442.8    
     26      1      5    252       445.8           5000.           442.8    
     27      1      5    255       445.8           5000.           442.8    
     28      1      5    257       445.8           5000.           442.8    
     29      1      5    260       445.8           5000.           442.8    
     30      1      5    324       737.1           5000.           734.1    
     31      1      5    359       636.5           5000.           633.5    
     32      1      5    362       632.9           5000.           629.9    
     33      1      5    365       628.5           5000.           625.5    
     34      1      5    370       619.0           5000.           616.0    
     35      1      5    372       620.3           5000.           617.3    
     36      1      5    375       628.2           5000.           625.2    
     37      1      5    377       628.8           5000.           625.8    
     38      1      5    380       628.8           5000.           625.8    
     39      1      5    382       628.8           5000.           625.8    
     40      1      5    385       638.6           5000.           635.6    
     41      1      5    387       638.6           5000.           635.6    
     42      1      5    390       638.6           5000.           635.6    
     43      1      7     67       508.3           5000.           505.3    
     44      1      7     70       508.8           5000.           505.8    
     45      1      7     72       506.8           5000.           503.8    
     46      1      7     74       511.0           5000.           508.0    
     47      1      7     77       518.7           5000.           515.7    
     48      1      7     80       525.3           5000.           522.3    
     49      1      7    192       564.7           5000.           561.7    
     50      1      7    260       445.8           5000.           442.8    
     51      1      7    324       729.4           5000.           726.4    
     52      1      7    327       720.9           5000.           717.9    
     53      1      7    362       633.2           5000.           630.2    
     54      1      7    365       626.1           5000.           623.1    
     55      1      7    367       619.0           5000.           616.0    
     56      1      7    370       619.0           5000.           616.0    
     57      1      7    382       628.8           5000.           625.8    
     58      1      7    385       628.8           5000.           625.8    
     59      1      7    387       638.6           5000.           635.6    
     60      1      7    390       638.6           5000.           635.6    
     61      1      9     67       500.3           5000.           497.3    
     62      1      9     70       500.3           5000.           497.3    
     63      1      9     72       501.8           5000.           498.8    
     64      1      9     80       535.9           5000.           532.9    
     65      1      9     82       534.6           5000.           531.6    
     66      1      9     84       549.3           5000.           546.3    
     67      1      9     87       563.1           5000.           560.1    
     68      1      9    192       558.1           5000.           555.1    
     69      1      9    224       530.0           5000.           527.0    
     70      1      9    257       445.8           5000.           442.8    
     71      1      9    260       445.8           5000.           442.8    
     72      1      9    327       718.5           5000.           715.5    
     73      1      9    365       619.0           5000.           616.0    
     74      1      9    367       619.0           5000.           616.0    
     75      1      9    370       619.0           5000.           616.0    
     76      1      9    382       634.4           5000.           631.4    
     77      1      9    385       637.3           5000.           634.3    
     78      1      9    387       638.0           5000.           635.0    
     79      1      9    390       644.0           5000.           641.0    
     80      1     12     70       500.3           5000.           497.3    
     81      1     12    192       553.7           5000.           550.7    
     82      1     12    195       551.7           5000.           548.7    
     83      1     12    224       526.8           5000.           523.8    
     84      1     12    227       518.8           5000.           515.8    
     85      1     12    255       445.8           5000.           442.8    
     86      1     12    257       445.8           5000.           442.8    
     87      1     12    327       718.1           5000.           715.1    
     88      1     12    330       718.1           5000.           715.1    
     89      1     12    362       619.0           5000.           616.0    
     90      1     12    365       619.0           5000.           616.0    
     91      1     12    367       619.0           5000.           616.0    
     92      1     15     70       500.1           5000.           497.1    
     93      1     15    195       544.1           5000.           541.1    
     94      1     15    197       538.4           5000.           535.4    
     95      1     15    224       512.6           5000.           509.6    
     96      1     15    227       516.1           5000.           513.1    
     97      1     15    252       445.8           5000.           442.8    
     98      1     15    255       445.8           5000.           442.8    
     99      1     15    327       718.0           5000.           715.0    
    100      1     15    330       709.5           5000.           706.5    
    101      1     15    332       708.7           5000.           705.7    
    102      1     15    357       608.5           5000.           605.5    
    103      1     15    359       608.5           5000.           605.5    
    104      1     15    362       617.2           5000.           614.2    
    105      1     15    365       619.0           5000.           616.0    
    106      1     17     62       498.6           5000.           495.6    
    107      1     17     64       498.6           5000.           495.6    
    108      1     17     67       498.6           5000.           495.6    
    109      1     17     70       498.6           5000.           495.6    
    110      1     17    197       536.4           5000.           533.4    
    111      1     17    224       497.5           5000.           494.5    
    112      1     17    227       498.4           5000.           495.4    
    113      1     17    252       445.8           5000.           442.8    
    114      1     17    330       698.6           5000.           695.6    
    115      1     17    332       698.7           5000.           695.7    
    116      1     17    357       608.5           5000.           605.5    
    117      1     17    359       608.5           5000.           605.5    
    118      1     17    362       619.0           5000.           616.0    
    119      1     19     57       496.3           5000.           493.3    
    120      1     19     60       497.6           5000.           494.6    
    121      1     19     62       498.6           5000.           495.6    
    122      1     19    197       530.9           5000.           527.9    
    123      1     19    205       551.6           5000.           548.6    
    124      1     19    207       549.6           5000.           546.6    
    125      1     19    224       497.3           5000.           494.3    
    126      1     19    227       487.7           5000.           484.7    
    127      1     19    250       445.8           5000.           442.8    
    128      1     19    252       445.8           5000.           442.8    
    129      1     19    255       446.6           5000.           443.6    
    130      1     19    330       698.5           5000.           695.5    
    131      1     19    359       608.5           5000.           605.5    
    132      1     22     54       494.0           5000.           491.0    
    133      1     22     57       494.8           5000.           491.8    
    134      1     22    197       522.7           5000.           519.7    
    135      1     22    202       530.6           5000.           527.6    
    136      1     22    205       537.6           5000.           534.6    
    137      1     22    207       545.6           5000.           542.6    
    138      1     22    224       481.3           5000.           478.3    
    139      1     22    227       483.1           5000.           480.1    
    140      1     22    247       445.8           5000.           442.8    
    141      1     22    250       445.8           5000.           442.8    
    142      1     22    255       449.0           5000.           446.0    
    143      1     22    257       449.9           5000.           446.9    
    144      1     22    327       694.8           5000.           691.8    
    145      1     22    330       692.2           5000.           689.2    
    146      1     22    354       606.5           5000.           603.5    
    147      1     22    357       608.0           5000.           605.0    
    148      1     22    359       608.5           5000.           605.5    
    149      1     22    372       690.1           5000.           687.1    
    150      1     22    375       698.0           5000.           695.0    
    151      1     22    377       705.7           5000.           702.7    
    152      1     25     54       492.5           5000.           489.5    
    153      1     25    169       526.8           5000.           523.8    
    154      1     25    197       517.2           5000.           514.2    
    155      1     25    199       518.0           5000.           515.0    
    156      1     25    202       525.2           5000.           522.2    
    157      1     25    205       536.4           5000.           533.4    
    158      1     25    224       481.3           5000.           478.3    
    159      1     25    227       481.3           5000.           478.3    
    160      1     25    247       445.8           5000.           442.8    
    161      1     25    257       459.7           5000.           456.7    
    162      1     25    260       471.6           5000.           468.6    
    163      1     25    327       685.0           5000.           682.0    
    164      1     25    330       690.7           5000.           687.7    
    165      1     25    352       603.6           5000.           600.6    
    166      1     25    354       605.9           5000.           602.9    
    167      1     25    367       668.3           5000.           665.3    
    168      1     25    370       671.1           5000.           668.1    
    169      1     25    372       686.0           5000.           683.0    
    170      1     25    377       705.3           5000.           702.3    
    171      1     25    380       712.3           5000.           709.3    
    172      1     27     54       492.5           5000.           489.5    
    173      1     27     57       490.5           5000.           487.5    
    174      1     27    169       516.6           5000.           513.6    
    175      1     27    187       498.7           5000.           495.7    
    176      1     27    189       501.1           5000.           498.1    
    177      1     27    192       507.6           5000.           504.6    
    178      1     27    195       508.9           5000.           505.9    
    179      1     27    197       514.6           5000.           511.6    
    180      1     27    199       516.6           5000.           513.6    
    181      1     27    227       468.4           5000.           465.4    
    182      1     27    229       463.2           5000.           460.2    
    183      1     27    232       457.8           5000.           454.8    
    184      1     27    234       454.2           5000.           451.2    
    185      1     27    247       445.8           5000.           442.8    
    186      1     27    260       476.5           5000.           473.5    
    187      1     27    262       487.4           5000.           484.4    
    188      1     27    265       500.1           5000.           497.1    
    189      1     27    324       676.4           5000.           673.4    
    190      1     27    327       679.7           5000.           676.7    
    191      1     27    352       601.5           5000.           598.5    
    192      1     27    367       657.0           5000.           654.0    
    193      1     27    370       667.5           5000.           664.5    
    194      1     27    372       683.7           5000.           680.7    
    195      1     29     57       490.1           5000.           487.1    
    196      1     29     60       488.5           5000.           485.5    
    197      1     29     62       487.8           5000.           484.8    
    198      1     29     64       487.5           5000.           484.5    
    199      1     29     67       486.6           5000.           483.6    
    200      1     29     70       486.0           5000.           483.0    
    201      1     29    169       508.5           5000.           505.5    
    202      1     29    185       488.2           5000.           485.2    
    203      1     29    187       497.7           5000.           494.7    
    204      1     29    189       499.2           5000.           496.2    
    205      1     29    192       505.7           5000.           502.7    
    206      1     29    195       509.7           5000.           506.7    
    207      1     29    234       445.8           5000.           442.8    
    208      1     29    247       445.8           5000.           442.8    
    209      1     29    265       501.0           5000.           498.0    
    210      1     29    322       659.4           5000.           656.4    
    211      1     29    324       664.0           5000.           661.0    
    212      1     29    327       679.7           5000.           676.7    
    213      1     29    352       598.8           5000.           595.8    
    214      1     29    354       613.9           5000.           610.9    
    215      1     29    357       615.0           5000.           612.0    
    216      1     29    359       627.6           5000.           624.6    
    217      1     29    362       638.0           5000.           635.0    
    218      1     29    365       647.9           5000.           644.9    
    219      1     29    367       655.2           5000.           652.2    
    220      1     32     10       628.6           5000.           625.6    
    221      1     32     70       485.0           5000.           482.0    
    222      1     32    169       496.8           5000.           493.8    
    223      1     32    172       494.9           5000.           491.9    
    224      1     32    185       485.8           5000.           482.8    
    225      1     32    187       483.3           5000.           480.3    
    226      1     32    234       445.8           5000.           442.8    
    227      1     32    237       445.8           5000.           442.8    
    228      1     32    247       445.8           5000.           442.8    
    229      1     32    250       445.8           5000.           442.8    
    230      1     32    322       651.5           5000.           648.5    
    231      1     32    347       598.4           5000.           595.4    
    232      1     32    349       598.4           5000.           595.4    
    233      1     32    352       598.4           5000.           595.4    
    234      1     32    354       605.0           5000.           602.0    
    235      1     32    357       623.8           5000.           620.8    
    236      1     35     10       627.9           5000.           624.9    
    237      1     35     70       484.2           5000.           481.2    
    238      1     35    172       487.2           5000.           484.2    
    239      1     35    185       478.5           5000.           475.5    
    240      1     35    187       481.9           5000.           478.9    
    241      1     35    234       445.8           5000.           442.8    
    242      1     35    237       445.8           5000.           442.8    
    243      1     35    247       445.8           5000.           442.8    
    244      1     35    250       445.8           5000.           442.8    
    245      1     35    312       633.0           5000.           630.0    
    246      1     35    314       622.5           5000.           619.5    
    247      1     35    317       624.4           5000.           621.4    
    248      1     35    320       644.7           5000.           641.7    
    249      1     35    322       651.6           5000.           648.6    
    250      1     35    339       588.7           5000.           585.7    
    251      1     35    342       598.4           5000.           595.4    
    252      1     35    347       598.4           5000.           595.4    
    253      1     37      5       618.5           5000.           615.5    
    254      1     37      7       618.7           5000.           615.7    
    255      1     37     10       627.2           5000.           624.2    
    256      1     37     70       483.6           5000.           480.6    
    257      1     37    172       480.8           5000.           477.8    
    258      1     37    175       477.4           5000.           474.4    
    259      1     37    182       478.5           5000.           475.5    
    260      1     37    185       478.5           5000.           475.5    
    261      1     37    234       445.8           5000.           442.8    
    262      1     37    245       445.8           5000.           442.8    
    263      1     37    247       445.8           5000.           442.8    
    264      1     37    290       641.3           5000.           638.3    
    265      1     37    312       624.8           5000.           621.8    
    266      1     37    314       613.2           5000.           610.2    
    267      1     37    317       629.3           5000.           626.3    
    268      1     37    337       588.7           5000.           585.7    
    269      1     37    339       588.7           5000.           585.7    
    270      1     37    342       588.7           5000.           585.7    
    271      1     37    344       598.4           5000.           595.4    
    272      1     37    347       598.4           5000.           595.4    
    273      1     39      2       616.2           5000.           613.2    
    274      1     39      5       618.2           5000.           615.2    
    275      1     39     67       482.5           5000.           479.5    
    276      1     39     70       482.9           5000.           479.9    
    277      1     39     77       511.6           5000.           508.6    
    278      1     39     80       513.2           5000.           510.2    
    279      1     39    175       470.9           5000.           467.9    
    280      1     39    177       463.0           5000.           460.0    
    281      1     39    179       458.1           5000.           455.1    
    282      1     39    182       458.7           5000.           455.7    
    283      1     39    185       478.5           5000.           475.5    
    284      1     39    229       445.8           5000.           442.8    
    285      1     39    232       445.8           5000.           442.8    
    286      1     39    234       445.8           5000.           442.8    
    287      1     39    237       445.8           5000.           442.8    
    288      1     39    240       445.8           5000.           442.8    
    289      1     39    242       445.8           5000.           442.8    
    290      1     39    245       445.8           5000.           442.8    
    291      1     39    287       631.4           5000.           628.4    
    292      1     39    290       632.5           5000.           629.5    
    293      1     39    310       613.9           5000.           610.9    
    294      1     39    312       617.7           5000.           614.7    
    295      1     39    314       605.9           5000.           602.9    
    296      1     39    330       585.2           5000.           582.2    
    297      1     39    332       588.5           5000.           585.5    
    298      1     39    334       588.6           5000.           585.6    
    299      1     39    337       588.7           5000.           585.7    
    300      1     42      2       612.9           5000.           609.9    
    301      1     42     64       481.7           5000.           478.7    
    302      1     42     67       481.2           5000.           478.2    
    303      1     42     77       508.1           5000.           505.1    
    304      1     42    140       598.6           5000.           595.6    
    305      1     42    179       455.7           5000.           452.7    
    306      1     42    182       461.5           5000.           458.5    
    307      1     42    185       478.5           5000.           475.5    
    308      1     42    212       445.8           5000.           442.8    
    309      1     42    214       445.8           5000.           442.8    
    310      1     42    217       445.8           5000.           442.8    
    311      1     42    219       445.8           5000.           442.8    
    312      1     42    222       445.8           5000.           442.8    
    313      1     42    224       445.8           5000.           442.8    
    314      1     42    227       445.8           5000.           442.8    
    315      1     42    229       445.8           5000.           442.8    
    316      1     42    240       445.8           5000.           442.8    
    317      1     42    242       445.8           5000.           442.8    
    318      1     42    287       625.3           5000.           622.3    
    319      1     42    310       598.2           5000.           595.2    
    320      1     42    312       595.8           5000.           592.8    
    321      1     42    314       602.3           5000.           599.3    
    322      1     42    330       580.1           5000.           577.1    
    323      1     44      2       609.6           5000.           606.6    
    324      1     44     64       480.6           5000.           477.6    
    325      1     44     67       480.5           5000.           477.5    
    326      1     44     74       503.5           5000.           500.5    
    327      1     44     77       504.7           5000.           501.7    
    328      1     44    140       588.6           5000.           585.6    
    329      1     44    177       455.7           5000.           452.7    
    330      1     44    179       455.7           5000.           452.7    
    331      1     44    182       465.1           5000.           462.1    
    332      1     44    205       445.2           5000.           442.2    
    333      1     44    207       445.8           5000.           442.8    
    334      1     44    209       445.8           5000.           442.8    
    335      1     44    212       445.8           5000.           442.8    
    336      1     44    227       445.8           5000.           442.8    
    337      1     44    287       617.6           5000.           614.6    
    338      1     44    310       591.2           5000.           588.2    
    339      1     44    312       584.7           5000.           581.7    
    340      1     44    324       578.7           5000.           575.7    
    341      1     44    327       578.7           5000.           575.7    
    342      1     44    330       578.7           5000.           575.7    
    343      1     47      2       608.6           5000.           605.6    
    344      1     47     67       478.5           5000.           475.5    
    345      1     47     74       498.4           5000.           495.4    
    346      1     47     77       501.7           5000.           498.7    
    347      1     47    137       581.7           5000.           578.7    
    348      1     47    140       588.1           5000.           585.1    
    349      1     47    177       456.0           5000.           453.0    
    350      1     47    179       453.2           5000.           450.2    
    351      1     47    199       445.2           5000.           442.2    
    352      1     47    202       445.2           5000.           442.2    
    353      1     47    205       445.2           5000.           442.2    
    354      1     47    227       445.8           5000.           442.8    
    355      1     47    287       617.3           5000.           614.3    
    356      1     47    312       583.9           5000.           580.9    
    357      1     47    324       578.7           5000.           575.7    
    358      1     47    327       578.7           5000.           575.7    
    359      1     49      2       608.6           5000.           605.6    
    360      1     49     62       478.5           5000.           475.5    
    361      1     49     64       478.5           5000.           475.5    
    362      1     49     67       478.5           5000.           475.5    
    363      1     49     72       489.2           5000.           486.2    
    364      1     49     74       496.3           5000.           493.3    
    365      1     49     77       499.2           5000.           496.2    
    366      1     49    137       575.5           5000.           572.5    
    367      1     49    177       453.2           5000.           450.2    
    368      1     49    197       444.9           5000.           441.9    
    369      1     49    199       444.9           5000.           441.9    
    370      1     49    227       445.8           5000.           442.8    
    371      1     49    287       609.0           5000.           606.0    
    372      1     49    312       583.9           5000.           580.9    
    373      1     49    314       577.5           5000.           574.5    
    374      1     49    322       567.9           5000.           564.9    
    375      1     49    324       572.7           5000.           569.7    
    376      1     52      2       608.6           5000.           605.6    
    377      1     52     34       535.6           5000.           532.6    
    378      1     52     37       526.8           5000.           523.8    
    379      1     52     40       518.7           5000.           515.7    
    380      1     52     42       517.2           5000.           514.2    
    381      1     52     62       478.5           5000.           475.5    
    382      1     52     64       478.5           5000.           475.5    
    383      1     52     67       480.1           5000.           477.1    
    384      1     52     70       488.2           5000.           485.2    
    385      1     52     72       488.8           5000.           485.8    
    386      1     52     77       505.9           5000.           502.9    
    387      1     52     80       508.0           5000.           505.0    
    388      1     52     82       512.4           5000.           509.4    
    389      1     52     84       518.5           5000.           515.5    
    390      1     52     87       518.5           5000.           515.5    
    391      1     52     89       526.9           5000.           523.9    
    392      1     52     92       528.6           5000.           525.6    
    393      1     52     94       536.6           5000.           533.6    
    394      1     52     97       538.5           5000.           535.5    
    395      1     52    135       570.3           5000.           567.3    
    396      1     52    137       573.8           5000.           570.8    
    397      1     52    175       453.2           5000.           450.2    
    398      1     52    177       453.2           5000.           450.2    
    399      1     52    192       445.2           5000.           442.2    
    400      1     52    195       445.2           5000.           442.2    
    401      1     52    197       445.2           5000.           442.2    
    402      1     52    227       445.8           5000.           442.8    
    403      1     52    284       600.0           5000.           597.0    
    404      1     52    287       607.7           5000.           604.7    
    405      1     52    314       569.0           5000.           566.0    
    406      1     52    320       565.6           5000.           562.6    
    407      1     52    322       566.9           5000.           563.9    
    408      1     54      2       608.6           5000.           605.6    
    409      1     54     42       512.0           5000.           509.0    
    410      1     54     44       504.0           5000.           501.0    
    411      1     54     47       499.9           5000.           496.9    
    412      1     54     50       486.9           5000.           483.9    
    413      1     54     52       485.0           5000.           482.0    
    414      1     54     62       478.5           5000.           475.5    
    415      1     54    135       570.3           5000.           567.3    
    416      1     54    137       570.3           5000.           567.3    
    417      1     54    177       449.6           5000.           446.6    
    418      1     54    179       444.5           5000.           441.5    
    419      1     54    187       444.4           5000.           441.4    
    420      1     54    189       444.4           5000.           441.4    
    421      1     54    192       444.4           5000.           441.4    
    422      1     54    227       445.8           5000.           442.8    
    423      1     54    229       446.0           5000.           443.0    
    424      1     54    284       590.3           5000.           587.3    
    425      1     54    314       566.0           5000.           563.0    
    426      1     54    317       562.4           5000.           559.4    
    427      1     54    320       563.4           5000.           560.4    
    428      1     57     52       482.1           5000.           479.1    
    429      1     57     54       481.8           5000.           478.8    
    430      1     57     60       478.5           5000.           475.5    
    431      1     57     62       478.5           5000.           475.5    
    432      1     57    135       570.3           5000.           567.3    
    433      1     57    137       570.3           5000.           567.3    
    434      1     57    179       444.5           5000.           441.5    
    435      1     57    185       444.4           5000.           441.4    
    436      1     57    187       444.4           5000.           441.4    
    437      1     57    227       446.0           5000.           443.0    
    438      1     57    282       587.5           5000.           584.5    
    439      1     57    284       587.6           5000.           584.6    
    440      1     57    314       558.8           5000.           555.8    
    441      1     57    317       560.9           5000.           557.9    
    442      1     59     54       481.8           5000.           478.8    
    443      1     59     57       478.9           5000.           475.9    
    444      1     59     60       478.4           5000.           475.4    
    445      1     59    137       570.3           5000.           567.3    
    446      1     59    140       553.0           5000.           550.0    
    447      1     59    179       444.5           5000.           441.5    
    448      1     59    185       444.4           5000.           441.4    
    449      1     59    227       446.0           5000.           443.0    
    450      1     59    282       583.7           5000.           580.7    
    451      1     59    310       558.7           5000.           555.7    
    452      1     59    312       558.8           5000.           555.8    
    453      1     59    314       558.8           5000.           555.8    
    454      1     59    317       558.8           5000.           555.8    
    455      1     59    320       559.6           5000.           556.6    
    456      1     59    365       688.8           5000.           685.8    
    457      1     59    367       688.7           5000.           685.7    
    458      1     62     57       473.0           5000.           470.0    
    459      1     62     60       477.8           5000.           474.8    
    460      1     62    135       547.7           5000.           544.7    
    461      1     62    137       548.7           5000.           545.7    
    462      1     62    140       552.5           5000.           549.5    
    463      1     62    179       444.4           5000.           441.4    
    464      1     62    185       444.4           5000.           441.4    
    465      1     62    227       449.4           5000.           446.4    
    466      1     62    280       577.0           5000.           574.0    
    467      1     62    282       577.0           5000.           574.0    
    468      1     62    310       558.7           5000.           555.7    
    469      1     62    365       688.2           5000.           685.2    
    470      1     64     52       468.6           5000.           465.6    
    471      1     64     54       468.6           5000.           465.6    
    472      1     64     57       468.6           5000.           465.6    
    473      1     64    130       536.9           5000.           533.9    
    474      1     64    132       538.5           5000.           535.5    
    475      1     64    135       545.2           5000.           542.2    
    476      1     64    179       444.4           5000.           441.4    
    477      1     64    182       444.4           5000.           441.4    
    478      1     64    185       444.4           5000.           441.4    
    479      1     64    227       449.4           5000.           446.4    
    480      1     64    277       567.0           5000.           564.0    
    481      1     64    280       567.0           5000.           564.0    
    482      1     64    310       554.0           5000.           551.0    
    483      1     64    365       678.9           5000.           675.9    
    484      1     67     47       491.6           5000.           488.6    
    485      1     67     50       477.0           5000.           474.0    
    486      1     67     52       468.6           5000.           465.6    
    487      1     67     54       468.6           5000.           465.6    
    488      1     67     57       468.6           5000.           465.6    
    489      1     67    127       534.5           5000.           531.5    
    490      1     67    130       536.1           5000.           533.1    
    491      1     67    132       538.4           5000.           535.4    
    492      1     67    185       444.4           5000.           441.4    
    493      1     67    224       453.8           5000.           450.8    
    494      1     67    227       450.5           5000.           447.5    
    495      1     67    274       549.0           5000.           546.0    
    496      1     67    277       555.3           5000.           552.3    
    497      1     67    310       547.8           5000.           544.8    
    498      1     67    362       671.9           5000.           668.9    
    499      1     67    365       675.1           5000.           672.1    
    500      1     70     42       504.3           5000.           501.3    
    501      1     70     44       494.3           5000.           491.3    
    502      1     70     47       492.4           5000.           489.4    
    503      1     70     52       468.6           5000.           465.6    
    504      1     70     54       468.6           5000.           465.6    
    505      1     70     57       468.6           5000.           465.6    
    506      1     70    112       526.4           5000.           523.4    
    507      1     70    120       525.5           5000.           522.5    
    508      1     70    122       525.5           5000.           522.5    
    509      1     70    125       525.5           5000.           522.5    
    510      1     70    127       528.6           5000.           525.6    
    511      1     70    182       444.4           5000.           441.4    
    512      1     70    185       444.4           5000.           441.4    
    513      1     70    187       446.1           5000.           443.1    
    514      1     70    189       446.1           5000.           443.1    
    515      1     70    224       458.6           5000.           455.6    
    516      1     70    227       453.7           5000.           450.7    
    517      1     70    229       452.8           5000.           449.8    
    518      1     70    274       543.4           5000.           540.4    
    519      1     70    310       546.4           5000.           543.4    
    520      1     70    337       0.000           5000.          -3.000    
    521      1     70    339       611.4           5000.           608.4    
    522      1     70    357       656.2           5000.           653.2    
    523      1     70    359       657.4           5000.           654.4    
    524      1     70    362       669.1           5000.           666.1    
    525      1     72     40       512.3           5000.           509.3    
    526      1     72     42       508.2           5000.           505.2    
    527      1     72     52       468.6           5000.           465.6    
    528      1     72    112       513.9           5000.           510.9    
    529      1     72    117       511.9           5000.           508.9    
    530      1     72    120       525.5           5000.           522.5    
    531      1     72    179       444.4           5000.           441.4    
    532      1     72    182       444.4           5000.           441.4    
    533      1     72    185       446.1           5000.           443.1    
    534      1     72    187       446.1           5000.           443.1    
    535      1     72    222       458.6           5000.           455.6    
    536      1     72    224       458.6           5000.           455.6    
    537      1     72    229       456.8           5000.           453.8    
    538      1     72    272       527.0           5000.           524.0    
    539      1     72    274       542.8           5000.           539.8    
    540      1     72    307       543.3           5000.           540.3    
    541      1     72    310       544.2           5000.           541.2    
    542      1     72    334       605.1           5000.           602.1    
    543      1     72    337       610.1           5000.           607.1    
    544      1     72    354       651.6           5000.           648.6    
    545      1     72    357       653.4           5000.           650.4    
    546      1     75     40       519.3           5000.           516.3    
    547      1     75     52       468.6           5000.           465.6    
    548      1     75    112       508.4           5000.           505.4    
    549      1     75    115       508.4           5000.           505.4    
    550      1     75    117       508.5           5000.           505.5    
    551      1     75    177       444.4           5000.           441.4    
    552      1     75    179       444.4           5000.           441.4    
    553      1     75    182       446.1           5000.           443.1    
    554      1     75    185       446.1           5000.           443.1    
    555      1     75    222       458.6           5000.           455.6    
    556      1     75    229       456.6           5000.           453.6    
    557      1     75    270       508.4           5000.           505.4    
    558      1     75    272       521.9           5000.           518.9    
    559      1     75    302       539.1           5000.           536.1    
    560      1     75    304       539.8           5000.           536.8    
    561      1     75    307       542.3           5000.           539.3    
    562      1     75    320       569.0           5000.           566.0    
    563      1     75    322       574.5           5000.           571.5    
    564      1     75    324       576.2           5000.           573.2    
    565      1     75    327       582.1           5000.           579.1    
    566      1     75    330       587.5           5000.           584.5    
    567      1     75    332       593.8           5000.           590.8    
    568      1     75    334       602.8           5000.           599.8    
    569      1     75    354       649.2           5000.           646.2    
    570      1     77     34       540.8           5000.           537.8    
    571      1     77     37       537.6           5000.           534.6    
    572      1     77     40       527.2           5000.           524.2    
    573      1     77     52       468.6           5000.           465.6    
    574      1     77     54       469.9           5000.           466.9    
    575      1     77    107       495.9           5000.           492.9    
    576      1     77    110       498.0           5000.           495.0    
    577      1     77    112       504.8           5000.           501.8    
    578      1     77    177       444.4           5000.           441.4    
    579      1     77    179       444.4           5000.           441.4    
    580      1     77    182       446.1           5000.           443.1    
    581      1     77    219       463.6           5000.           460.6    
    582      1     77    222       458.7           5000.           455.7    
    583      1     77    224       464.0           5000.           461.0    
    584      1     77    229       456.6           5000.           453.6    
    585      1     77    232       456.6           5000.           453.6    
    586      1     77    234       462.7           5000.           459.7    
    587      1     77    260       488.6           5000.           485.6    
    588      1     77    262       490.2           5000.           487.2    
    589      1     77    265       491.6           5000.           488.6    
    590      1     77    267       493.8           5000.           490.8    
    591      1     77    270       508.1           5000.           505.1    
    592      1     77    290       518.3           5000.           515.3    
    593      1     77    302       538.2           5000.           535.2    
    594      1     77    314       555.5           5000.           552.5    
    595      1     77    317       561.5           5000.           558.5    
    596      1     77    320       565.3           5000.           562.3    
    597      1     77    322       572.7           5000.           569.7    
    598      1     77    327       583.0           5000.           580.0    
    599      1     77    330       587.2           5000.           584.2    
    600      1     77    332       593.7           5000.           590.7    
    601      1     77    354       643.4           5000.           640.4    
    602      1     77    382       663.5           5000.           660.5    
    603      1     77    385       667.7           5000.           664.7    
    604      1     77    387       671.9           5000.           668.9    
    605      1     77    390       678.5           5000.           675.5    
    606      1     80     54       468.6           5000.           465.6    
    607      1     80     57       468.6           5000.           465.6    
    608      1     80     60       468.6           5000.           465.6    
    609      1     80    102       488.4           5000.           485.4    
    610      1     80    104       488.7           5000.           485.7    
    611      1     80    107       495.6           5000.           492.6    
    612      1     80    110       497.5           5000.           494.5    
    613      1     80    177       444.4           5000.           441.4    
    614      1     80    179       446.1           5000.           443.1    
    615      1     80    217       463.6           5000.           460.6    
    616      1     80    219       463.6           5000.           460.6    
    617      1     80    224       463.0           5000.           460.0    
    618      1     80    234       463.9           5000.           460.9    
    619      1     80    237       464.6           5000.           461.6    
    620      1     80    240       468.2           5000.           465.2    
    621      1     80    242       474.6           5000.           471.6    
    622      1     80    245       474.7           5000.           471.7    
    623      1     80    247       476.2           5000.           473.2    
    624      1     80    250       479.1           5000.           476.1    
    625      1     80    252       482.4           5000.           479.4    
    626      1     80    255       488.6           5000.           485.6    
    627      1     80    257       488.6           5000.           485.6    
    628      1     80    260       488.6           5000.           485.6    
    629      1     80    267       494.8           5000.           491.8    
    630      1     80    270       495.2           5000.           492.2    
    631      1     80    274       507.7           5000.           504.7    
    632      1     80    277       507.8           5000.           504.8    
    633      1     80    280       508.2           5000.           505.2    
    634      1     80    282       508.5           5000.           505.5    
    635      1     80    284       510.6           5000.           507.6    
    636      1     80    290       518.3           5000.           515.3    
    637      1     80    292       518.3           5000.           515.3    
    638      1     80    294       519.1           5000.           516.1    
    639      1     80    302       538.2           5000.           535.2    
    640      1     80    307       545.8           5000.           542.8    
    641      1     80    310       547.0           5000.           544.0    
    642      1     80    312       551.7           5000.           548.7    
    643      1     80    314       555.8           5000.           552.8    
    644      1     80    352       637.4           5000.           634.4    
    645      1     80    354       642.5           5000.           639.5    
    646      1     80    380       658.8           5000.           655.8    
    647      1     80    382       660.9           5000.           657.9    
    648      1     80    385       669.0           5000.           666.0    
    649      1     82     57       468.6           5000.           465.6    
    650      1     82     60       468.6           5000.           465.6    
    651      1     82    102       485.0           5000.           482.0    
    652      1     82    175       444.4           5000.           441.4    
    653      1     82    177       444.4           5000.           441.4    
    654      1     82    179       444.4           5000.           441.4    
    655      1     82    214       469.6           5000.           466.6    
    656      1     82    217       463.7           5000.           460.7    
    657      1     82    219       463.6           5000.           460.6    
    658      1     82    224       466.0           5000.           463.0    
    659      1     82    242       474.6           5000.           471.6    
    660      1     82    245       474.6           5000.           471.6    
    661      1     82    247       478.0           5000.           475.0    
    662      1     82    252       482.6           5000.           479.6    
    663      1     82    270       495.2           5000.           492.2    
    664      1     82    274       507.2           5000.           504.2    
    665      1     82    284       514.0           5000.           511.0    
    666      1     82    287       516.9           5000.           513.9    
    667      1     82    290       518.3           5000.           515.3    
    668      1     82    292       520.2           5000.           517.2    
    669      1     82    294       523.6           5000.           520.6    
    670      1     82    297       526.8           5000.           523.8    
    671      1     82    300       528.5           5000.           525.5    
    672      1     82    302       538.1           5000.           535.1    
    673      1     82    304       538.6           5000.           535.6    
    674      1     82    307       541.4           5000.           538.4    
    675      1     82    349       632.7           5000.           629.7    
    676      1     82    352       637.4           5000.           634.4    
    677      1     82    380       650.2           5000.           647.2    
    678      1     82    382       655.6           5000.           652.6    
    679      1     85     60       468.6           5000.           465.6    
    680      1     85     99       478.8           5000.           475.8    
    681      1     85    102       479.9           5000.           476.9    
    682      1     85    169       444.4           5000.           441.4    
    683      1     85    172       444.4           5000.           441.4    
    684      1     85    175       444.4           5000.           441.4    
    685      1     85    219       463.6           5000.           460.6    
    686      1     85    224       467.0           5000.           464.0    
    687      1     85    270       495.3           5000.           492.3    
    688      1     85    272       501.8           5000.           498.8    
    689      1     85    274       504.0           5000.           501.0    
    690      1     85    294       523.7           5000.           520.7    
    691      1     85    297       526.4           5000.           523.4    
    692      1     85    347       627.8           5000.           624.8    
    693      1     85    349       628.5           5000.           625.5    
    694      1     85    377       646.6           5000.           643.6    
    695      1     85    380       648.7           5000.           645.7    
    696      1     87     60       468.6           5000.           465.6    
    697      1     87     94       477.5           5000.           474.5    
    698      1     87     97       478.4           5000.           475.4    
    699      1     87     99       478.5           5000.           475.5    
    700      1     87    130       477.2           5000.           474.2    
    701      1     87    132       477.0           5000.           474.0    
    702      1     87    165       444.5           5000.           441.5    
    703      1     87    167       444.5           5000.           441.5    
    704      1     87    169       444.5           5000.           441.5    
    705      1     87    219       464.0           5000.           461.0    
    706      1     87    224       467.0           5000.           464.0    
    707      1     87    294       532.0           5000.           529.0    
    708      1     87    297       532.9           5000.           529.9    
    709      1     87    300       538.4           5000.           535.4    
    710      1     87    344       623.8           5000.           620.8    
    711      1     87    347       625.0           5000.           622.0    
    712      1     87    375       640.7           5000.           637.7    
    713      1     87    377       645.6           5000.           642.6    
    714      1     90     60       468.6           5000.           465.6    
    715      1     90     72       459.2           5000.           456.2    
    716      1     90     74       459.2           5000.           456.2    
    717      1     90     94       467.1           5000.           464.1    
    718      1     90    130       468.0           5000.           465.0    
    719      1     90    132       467.4           5000.           464.4    
    720      1     90    162       444.2           5000.           441.2    
    721      1     90    165       444.2           5000.           441.2    
    722      1     90    219       467.8           5000.           464.8    
    723      1     90    222       468.7           5000.           465.7    
    724      1     90    224       467.9           5000.           464.9    
    725      1     90    300       546.4           5000.           543.4    
    726      1     90    302       550.9           5000.           547.9    
    727      1     90    304       563.0           5000.           560.0    
    728      1     90    342       617.1           5000.           614.1    
    729      1     90    344       618.8           5000.           615.8    
    730      1     90    370       638.6           5000.           635.6    
    731      1     90    372       638.7           5000.           635.7    
    732      1     90    375       638.8           5000.           635.8    
    733      1     92     60       468.6           5000.           465.6    
    734      1     92     62       468.6           5000.           465.6    
    735      1     92     70       459.2           5000.           456.2    
    736      1     92     72       459.2           5000.           456.2    
    737      1     92     74       459.2           5000.           456.2    
    738      1     92     77       459.2           5000.           456.2    
    739      1     92     80       459.2           5000.           456.2    
    740      1     92     94       462.7           5000.           459.7    
    741      1     92    132       458.7           5000.           455.7    
    742      1     92    135       458.9           5000.           455.9    
    743      1     92    159       444.2           5000.           441.2    
    744      1     92    162       444.2           5000.           441.2    
    745      1     92    222       469.2           5000.           466.2    
    746      1     92    224       467.8           5000.           464.8    
    747      1     92    342       615.4           5000.           612.4    
    748      1     92    367       628.4           5000.           625.4    
    749      1     92    370       638.4           5000.           635.4    
    750      1     95      2       616.0           5000.           613.0    
    751      1     95      5       617.9           5000.           614.9    
    752      1     95      7       618.1           5000.           615.1    
    753      1     95     10       621.7           5000.           618.7    
    754      1     95     62       459.2           5000.           456.2    
    755      1     95     64       459.2           5000.           456.2    
    756      1     95     67       459.2           5000.           456.2    
    757      1     95     70       459.2           5000.           456.2    
    758      1     95     80       459.2           5000.           456.2    
    759      1     95     92       460.3           5000.           457.3    
    760      1     95     94       460.1           5000.           457.1    
    761      1     95    135       452.5           5000.           449.5    
    762      1     95    149       444.2           5000.           441.2    
    763      1     95    152       444.2           5000.           441.2    
    764      1     95    159       444.2           5000.           441.2    
    765      1     95    219       478.7           5000.           475.7    
    766      1     95    222       477.0           5000.           474.0    
    767      1     95    339       614.5           5000.           611.5    
    768      1     95    342       613.4           5000.           610.4    
    769      1     95    365       628.4           5000.           625.4    
    770      1     95    367       628.4           5000.           625.4    
    771      1     97     10       626.2           5000.           623.2    
    772      1     97     12       627.1           5000.           624.1    
    773      1     97     80       459.2           5000.           456.2    
    774      1     97     92       458.6           5000.           455.6    
    775      1     97    135       450.5           5000.           447.5    
    776      1     97    152       444.2           5000.           441.2    
    777      1     97    155       445.0           5000.           442.0    
    778      1     97    157       444.2           5000.           441.2    
    779      1     97    159       444.2           5000.           441.2    
    780      1     97    217       478.7           5000.           475.7    
    781      1     97    219       478.7           5000.           475.7    
    782      1     97    339       611.8           5000.           608.8    
    783      1     97    342       611.2           5000.           608.2    
    784      1     97    359       619.6           5000.           616.6    
    785      1     97    362       626.4           5000.           623.4    
    786      1     97    365       628.3           5000.           625.3    
    787      1     97    367       628.3           5000.           625.3    
    788      1    100     80       459.2           5000.           456.2    
    789      1    100     82       459.2           5000.           456.2    
    790      1    100     84       459.2           5000.           456.2    
    791      1    100     87       459.2           5000.           456.2    
    792      1    100     89       459.2           5000.           456.2    
    793      1    100     92       458.6           5000.           455.6    
    794      1    100    135       447.9           5000.           444.9    
    795      1    100    152       444.2           5000.           441.2    
    796      1    100    155       444.2           5000.           441.2    
    797      1    100    157       444.2           5000.           441.2    
    798      1    100    214       485.1           5000.           482.1    
    799      1    100    217       479.3           5000.           476.3    
    800      1    100    339       609.9           5000.           606.9    
    801      1    100    342       608.5           5000.           605.5    
    802      1    100    359       615.6           5000.           612.6    
    803      1    102     87       458.1           5000.           455.1    
    804      1    102     89       458.1           5000.           455.1    
    805      1    102     92       458.2           5000.           455.2    
    806      1    102    135       445.0           5000.           442.0    
    807      1    102    137       444.2           5000.           441.2    
    808      1    102    140       444.2           5000.           441.2    
    809      1    102    142       444.2           5000.           441.2    
    810      1    102    147       444.3           5000.           441.3    
    811      1    102    149       444.3           5000.           441.3    
    812      1    102    152       444.2           5000.           441.2    
    813      1    102    212       488.6           5000.           485.6    
    814      1    102    214       486.7           5000.           483.7    
    815      1    102    339       605.5           5000.           602.5    
    816      1    102    342       607.2           5000.           604.2    
    817      1    102    357       612.2           5000.           609.2    
    818      1    102    359       618.1           5000.           615.1    
    819      1    102    387       648.5           5000.           645.5    
    820      1    102    390       652.0           5000.           649.0    
    821      1    104     87       458.1           5000.           455.1    
    822      1    104     89       457.1           5000.           454.1    
    823      1    104     92       457.1           5000.           454.1    
    824      1    104    142       444.2           5000.           441.2    
    825      1    104    145       444.2           5000.           441.2    
    826      1    104    147       444.2           5000.           441.2    
    827      1    104    149       444.2           5000.           441.2    
    828      1    104    209       487.2           5000.           484.2    
    829      1    104    212       488.6           5000.           485.6    
    830      1    104    334       604.1           5000.           601.1    
    831      1    104    337       604.1           5000.           601.1    
    832      1    104    339       604.9           5000.           601.9    
    833      1    104    354       611.7           5000.           608.7    
    834      1    104    357       612.2           5000.           609.2    
    835      1    104    385       648.5           5000.           645.5    
    836      1    104    387       648.5           5000.           645.5    
    837      1    107     89       456.8           5000.           453.8    
    838      1    107     92       456.8           5000.           453.8    
    839      1    107    140       444.2           5000.           441.2    
    840      1    107    142       444.2           5000.           441.2    
    841      1    107    202       480.1           5000.           477.1    
    842      1    107    205       480.1           5000.           477.1    
    843      1    107    207       480.4           5000.           477.4    
    844      1    107    209       480.4           5000.           477.4    
    845      1    107    337       602.6           5000.           599.6    
    846      1    107    352       608.2           5000.           605.2    
    847      1    107    354       608.2           5000.           605.2    
    848      1    107    385       640.6           5000.           637.6    
    849      1    110     92       456.8           5000.           453.8    
    850      1    110     94       456.8           5000.           453.8    
    851      1    110    140       444.2           5000.           441.2    
    852      1    110    197       474.8           5000.           471.8    
    853      1    110    199       474.8           5000.           471.8    
    854      1    110    202       475.6           5000.           472.6    
    855      1    110    205       481.9           5000.           478.9    
    856      1    110    255       523.7           5000.           520.7    
    857      1    110    334       598.0           5000.           595.0    
    858      1    110    337       602.5           5000.           599.5    
    859      1    110    349       606.2           5000.           603.2    
    860      1    110    352       606.2           5000.           603.2    
    861      1    110    359       618.5           5000.           615.5    
    862      1    110    362       626.5           5000.           623.5    
    863      1    110    385       638.4           5000.           635.4    
    864      1    112     94       456.8           5000.           453.8    
    865      1    112     97       454.4           5000.           451.4    
    866      1    112    137       444.2           5000.           441.2    
    867      1    112    140       444.2           5000.           441.2    
    868      1    112    192       471.9           5000.           468.9    
    869      1    112    195       472.1           5000.           469.1    
    870      1    112    197       474.6           5000.           471.6    
    871      1    112    205       482.1           5000.           479.1    
    872      1    112    207       480.4           5000.           477.4    
    873      1    112    209       483.2           5000.           480.2    
    874      1    112    252       513.7           5000.           510.7    
    875      1    112    255       514.4           5000.           511.4    
    876      1    112    257       523.6           5000.           520.6    
    877      1    112    260       523.7           5000.           520.7    
    878      1    112    262       523.7           5000.           520.7    
    879      1    112    265       523.7           5000.           520.7    
    880      1    112    267       528.5           5000.           525.5    
    881      1    112    270       529.4           5000.           526.4    
    882      1    112    272       533.4           5000.           530.4    
    883      1    112    274       538.4           5000.           535.4    
    884      1    112    277       544.6           5000.           541.6    
    885      1    112    280       548.1           5000.           545.1    
    886      1    112    332       597.1           5000.           594.1    
    887      1    112    334       597.2           5000.           594.2    
    888      1    112    349       604.6           5000.           601.6    
    889      1    112    352       598.8           5000.           595.8    
    890      1    112    357       618.2           5000.           615.2    
    891      1    112    359       618.5           5000.           615.5    
    892      1    112    385       634.1           5000.           631.1    
    893      1    112    390       647.8           5000.           644.8    
    894      1    114     97       453.8           5000.           450.8    
    895      1    114    104       452.0           5000.           449.0    
    896      1    114    107       451.0           5000.           448.0    
    897      1    114    137       444.2           5000.           441.2    
    898      1    114    140       444.2           5000.           441.2    
    899      1    114    142       444.2           5000.           441.2    
    900      1    114    189       469.7           5000.           466.7    
    901      1    114    192       470.2           5000.           467.2    
    902      1    114    209       480.6           5000.           477.6    
    903      1    114    212       486.5           5000.           483.5    
    904      1    114    250       511.6           5000.           508.6    
    905      1    114    252       511.7           5000.           508.7    
    906      1    114    265       523.7           5000.           520.7    
    907      1    114    267       525.4           5000.           522.4    
    908      1    114    332       596.5           5000.           593.5    
    909      1    114    334       596.1           5000.           593.1    
    910      1    114    349       598.7           5000.           595.7    
    911      1    114    352       598.8           5000.           595.8    
    912      1    114    354       607.8           5000.           604.8    
    913      1    114    357       608.7           5000.           605.7    
    914      1    114    382       627.6           5000.           624.6    
    915      1    114    385       628.5           5000.           625.5    
    916      1    114    390       647.8           5000.           644.8    
    917      1    117     97       453.8           5000.           450.8    
    918      1    117     99       452.0           5000.           449.0    
    919      1    117    102       451.0           5000.           448.0    
    920      1    117    104       451.0           5000.           448.0    
    921      1    117    107       451.0           5000.           448.0    
    922      1    117    112       446.0           5000.           443.0    
    923      1    117    115       445.4           5000.           442.4    
    924      1    117    137       444.2           5000.           441.2    
    925      1    117    140       444.2           5000.           441.2    
    926      1    117    187       469.0           5000.           466.0    
    927      1    117    189       469.0           5000.           466.0    
    928      1    117    212       486.7           5000.           483.7    
    929      1    117    214       486.9           5000.           483.9    
    930      1    117    217       487.1           5000.           484.1    
    931      1    117    219       488.1           5000.           485.1    
    932      1    117    247       509.0           5000.           506.0    
    933      1    117    250       510.4           5000.           507.4    
    934      1    117    334       592.5           5000.           589.5    
    935      1    117    347       596.6           5000.           593.6    
    936      1    117    349       597.1           5000.           594.1    
    937      1    117    352       598.7           5000.           595.7    
    938      1    117    354       603.8           5000.           600.8    
    939      1    117    377       625.2           5000.           622.2    
    940      1    117    380       627.5           5000.           624.5    
    941      1    117    382       627.6           5000.           624.6    
    942      1    117    385       633.7           5000.           630.7    
    943      1    117    387       634.1           5000.           631.1    
    944      1    117    390       637.8           5000.           634.8    
    945      1    120    104       450.6           5000.           447.6    
    946      1    120    107       447.1           5000.           444.1    
    947      1    120    110       447.1           5000.           444.1    
[...]
        509.5       509.8       510.2       510.5       510.8       511.1       511.5       511.5       511.6       511.5    
        511.4       511.3       511.2       511.1       511.0       510.9       510.8       510.7       510.5       510.4    
        510.3       510.1       509.9       509.7       509.5       509.3       509.1       508.8       508.6       508.4    
        508.1       507.9       507.6       507.4       507.1       506.8       506.3       507.9       509.3       510.7    
        512.0       513.2       514.5       515.7       516.9       518.1       519.3       520.5       521.7       522.8    
        523.9       525.0       526.1       527.2       528.3       529.3       530.4       531.4       532.4       533.4    
        534.3       535.3       536.2       537.1       538.0       538.9       539.8       540.7       541.5       542.4    
        543.2       544.0       544.8       545.6       546.3       547.1       547.8       548.5       549.2       549.9    
        550.6       551.3       551.9       552.6       553.2       553.8       554.4       555.0       555.6       556.2    
        556.7       557.2       557.8       558.3       558.8       559.3       559.7       560.2       560.7       561.1    
        561.5       561.9       562.3       562.7       563.1       563.5       563.8       564.2       564.5       564.8    
        565.2       565.5       565.8       566.1       566.3       566.6       566.9       567.1       567.4       567.6    
        567.8       568.0       568.3       568.5       568.7       568.8       569.0       569.2       569.4       569.5    
        569.7       569.8       570.0       570.1       570.2       570.3       570.4       570.5       570.6       570.7    
        570.8       570.9       570.9       571.0       571.0       571.1       571.1       571.1       571.2       571.2    
        571.3       571.3       571.4       571.4       571.5       571.5       571.6       571.7       571.7       571.8    
        571.9       571.9       572.8       573.6       574.3       575.0       575.6       576.3       576.8       577.4    
        577.9       578.4       578.9       579.4       579.8       580.3       580.7       581.1       581.4       581.8    
        582.1       582.5       582.8       583.1       583.4       583.6       583.9       584.1       584.4       584.6    
        584.8       585.0       585.2       585.4       585.6       585.8       586.0       586.2       586.4       586.5    
        586.7       586.9       587.1       587.2       587.4       587.6       587.8       587.9       588.1       588.3    
        588.5       588.8       589.1       589.3       589.4       590.0       590.4       590.9       591.2       591.5    
        592.0       592.3       592.6       592.9       593.1       593.2       593.4       593.5       593.6       593.6    
 248    445.4       445.3       445.4       445.3       445.2       445.3       445.3       445.5       445.7       445.9    
        446.5       447.1       447.6       448.2       448.7       449.2       449.6       450.0       450.5       450.9    
        451.2       451.6       452.0       452.4       452.7       453.1       453.4       453.8       454.1       454.4    
        454.8       455.1       455.5       455.8       456.1       456.5       456.8       457.2       457.5       457.8    
        458.2       458.5       458.9       459.2       459.6       459.9       460.3       460.7       461.1       461.5    
        461.9       462.3       462.8       463.2       463.6       464.0       464.5       464.9       465.3       465.7    
        466.0       466.4       466.6       466.8       467.0       467.1       467.3       467.5       467.7       467.9    
        468.1       468.3       468.6       468.8       469.0       469.3       469.5       469.8       470.0       470.3    
        470.6       470.9       471.2       471.5       471.8       472.1       472.5       472.9       473.3       473.7    
        474.1       474.5       475.0       475.4       475.9       476.4       477.0       477.5       478.0       478.6    
        479.2       479.8       480.4       481.0       481.6       482.1       482.7       483.3       483.9       484.6    
        485.2       485.8       486.4       486.9       487.5       487.9       488.3       488.8       489.3       489.8    
        490.3       490.9       491.4       492.0       492.6       493.2       493.8       494.4       495.0       495.6    
        496.2       496.8       497.5       498.1       498.7       499.3       499.9       500.5       501.1       501.7    
        502.3       502.8       503.4       504.0       504.5       504.9       505.2       505.5       505.7       506.0    
        506.3       506.6       506.9       507.3       507.6       507.9       508.3       508.6       508.9       509.3    
        509.6       509.9       510.3       510.6       510.9       511.1       511.4       511.5       511.7       511.6    
        511.5       511.4       511.3       511.2       511.1       511.0       510.9       510.8       510.6       510.5    
        510.3       510.2       510.0       509.8       509.6       509.4       509.2       509.0       508.7       508.5    
        508.2       508.0       507.7       507.5       507.3       507.1       507.0       508.2       509.5       510.8    
        512.0       513.3       514.6       515.8       517.0       518.2       519.4       520.6       521.7       522.9    
        524.0       525.1       526.2       527.3       528.3       529.4       530.4       531.4       532.4       533.4    
        534.4       535.4       536.3       537.2       538.1       539.0       539.9       540.8       541.6       542.4    
        543.3       544.1       544.9       545.6       546.4       547.2       547.9       548.6       549.3       550.0    
        550.7       551.4       552.0       552.7       553.3       553.9       554.5       555.1       555.7       556.2    
        556.8       557.3       557.8       558.4       558.9       559.4       559.8       560.3       560.7       561.2    
        561.6       562.0       562.4       562.8       563.2       563.6       563.9       564.3       564.6       564.9    
        565.3       565.6       565.9       566.1       566.4       566.7       567.0       567.2       567.5       567.7    
        567.9       568.1       568.3       568.6       568.8       568.9       569.1       569.3       569.5       569.6    
        569.8       569.9       570.1       570.2       570.3       570.4       570.5       570.6       570.7       570.8    
        570.9       571.0       571.0       571.1       571.1       571.2       571.2       571.3       571.3       571.4    
        571.4       571.4       571.5       571.5       571.6       571.7       571.7       571.8       571.9       571.9    
        572.0       572.2       572.9       573.6       574.4       575.0       575.7       576.3       576.9       577.4    
        578.0       578.5       579.0       579.4       579.9       580.3       580.7       581.1       581.5       581.9    
        582.2       582.5       582.9       583.2       583.4       583.7       584.0       584.2       584.5       584.7    
        584.9       585.1       585.3       585.5       585.7       585.9       586.1       586.3       586.5       586.7    
        586.8       587.0       587.2       587.4       587.5       587.7       587.8       588.0       588.1       588.3    
        588.5       588.7       589.1       589.4       589.8       590.2       590.5       590.9       591.3       591.7    
        592.0       592.3       592.6       592.9       593.1       593.3       593.4       593.5       593.6       593.6    
 249    445.5       445.4       445.4       445.4       445.4       445.4       445.5       445.6       445.7       445.7    
        446.4       447.1       447.7       448.2       448.7       449.2       449.6       450.1       450.5       450.9    
        451.3       451.7       452.1       452.4       452.8       453.1       453.5       453.8       454.2       454.5    
        454.9       455.2       455.5       455.9       456.2       456.6       456.9       457.2       457.6       457.9    
        458.3       458.6       458.9       459.3       459.7       460.0       460.4       460.8       461.2       461.6    
        462.0       462.4       462.8       463.3       463.7       464.1       464.5       464.9       465.3       465.7    
        466.1       466.4       466.6       466.8       467.0       467.2       467.4       467.6       467.8       468.0    
        468.2       468.4       468.6       468.9       469.1       469.3       469.6       469.8       470.1       470.4    
        470.7       471.0       471.3       471.6       471.9       472.2       472.6       473.0       473.4       473.8    
        474.2       474.6       475.1       475.6       476.0       476.6       477.1       477.6       478.2       478.7    
        479.3       479.9       480.5       481.0       481.6       482.2       482.8       483.4       484.0       484.6    
        485.2       485.9       486.4       487.0       487.7       488.1       488.5       488.9       489.4       489.9    
        490.4       491.0       491.5       492.1       492.7       493.3       493.9       494.5       495.1       495.7    
        496.3       496.9       497.5       498.2       498.8       499.4       500.0       500.6       501.2       501.8    
        502.4       502.9       503.5       504.1       504.7       505.0       505.5       505.6       505.9       506.1    
        506.4       506.7       507.0       507.3       507.7       508.0       508.3       508.7       509.0       509.3    
        509.7       510.0       510.3       510.6       510.9       511.2       511.4       511.6       511.8       511.7    
        511.6       511.5       511.4       511.3       511.2       511.1       511.0       510.8       510.7       510.5    
        510.4       510.2       510.1       509.9       509.7       509.5       509.2       509.0       508.8       508.6    
        508.3       508.1       507.8       507.6       507.4       507.1       506.6       508.2       509.5       510.8    
        512.1       513.4       514.6       515.8       517.1       518.3       519.5       520.6       521.8       522.9    
        524.1       525.2       526.3       527.3       528.4       529.4       530.5       531.5       532.5       533.5    
        534.4       535.4       536.3       537.3       538.2       539.1       539.9       540.8       541.7       542.5    
        543.3       544.1       544.9       545.7       546.5       547.2       547.9       548.7       549.4       550.1    
        550.8       551.4       552.1       552.7       553.3       554.0       554.6       555.2       555.7       556.3    
        556.8       557.4       557.9       558.4       558.9       559.4       559.9       560.3       560.8       561.2    
        561.7       562.1       562.5       562.9       563.3       563.6       564.0       564.3       564.7       565.0    
        565.3       565.6       565.9       566.2       566.5       566.8       567.0       567.3       567.5       567.8    
        568.0       568.2       568.4       568.6       568.8       569.0       569.2       569.4       569.5       569.7    
        569.8       570.0       570.1       570.3       570.4       570.5       570.6       570.7       570.8       570.9    
        571.0       571.0       571.1       571.1       571.2       571.3       571.3       571.3       571.4       571.4    
        571.5       571.5       571.6       571.6       571.7       571.8       571.8       571.9       572.0       572.0    
        572.1       572.0       572.9       573.7       574.4       575.1       575.7       576.3       576.9       577.5    
        578.0       578.5       579.0       579.5       579.9       580.4       580.8       581.2       581.5       581.9    
        582.3       582.6       582.9       583.2       583.5       583.8       584.0       584.3       584.5       584.8    
        585.0       585.2       585.4       585.6       585.8       586.0       586.2       586.4       586.6       586.7    
        586.9       587.1       587.3       587.4       587.6       587.7       587.9       588.0       588.1       588.1    
        588.4       588.5       589.1       589.5       590.0       590.3       590.6       591.0       591.4       591.7    
        592.0       592.4       592.6       592.9       593.1       593.3       593.4       593.5       593.6       593.6    
 250    445.5       445.5       445.5       445.5       445.5       445.5       445.6       445.7       445.8       446.0    
        446.5       447.1       447.7       448.2       448.7       449.2       449.7       450.1       450.5       450.9    
        451.3       451.7       452.1       452.5       452.8       453.2       453.5       453.9       454.2       454.6    
        454.9       455.2       455.6       455.9       456.3       456.6       456.9       457.3       457.6       458.0    
        458.3       458.6       459.0       459.3       459.7       460.1       460.4       460.8       461.2       461.6    
        462.0       462.5       462.9       463.3       463.7       464.1       464.6       465.0       465.4       465.7    
        466.1       466.4       466.6       466.9       467.1       467.3       467.5       467.6       467.8       468.0    
        468.3       468.5       468.7       468.9       469.2       469.4       469.6       469.9       470.2       470.4    
        470.7       471.0       471.3       471.6       472.0       472.3       472.7       473.0       473.4       473.8    
        474.3       474.7       475.1       475.6       476.1       476.6       477.1       477.7       478.2       478.8    
        479.3       479.9       480.5       481.1       481.7       482.3       482.9       483.5       484.1       484.7    
        485.3       485.9       486.5       487.1       487.6       488.1       488.5       489.0       489.5       490.0    
        490.5       491.0       491.6       492.1       492.7       493.3       493.9       494.5       495.1       495.7    
        496.4       497.0       497.6       498.2       498.8       499.4       500.0       500.6       501.2       501.8    
        502.4       503.0       503.5       504.1       504.6       505.0       505.4       505.7       505.9       506.2    
        506.5       506.8       507.1       507.4       507.7       508.0       508.4       508.7       509.0       509.4    
        509.7       510.0       510.3       510.6       510.9       511.2       511.4       511.6       511.7       511.7    
        511.6       511.5       511.4       511.3       511.2       511.1       511.0       510.9       510.7       510.6    
        510.4       510.3       510.1       509.9       509.7       509.5       509.3       509.1       508.8       508.6    
        508.4       508.1       507.9       507.7       507.5       507.4       507.5       508.4       509.6       510.9    
        512.1       513.4       514.6       515.9       517.1       518.3       519.5       520.7       521.8       523.0    
        524.1       525.2       526.3       527.4       528.4       529.5       530.5       531.5       532.5       533.5    
        534.5       535.4       536.4       537.3       538.2       539.1       540.0       540.8       541.7       542.5    
        543.3       544.2       544.9       545.7       546.5       547.2       548.0       548.7       549.4       550.1    
        550.8       551.4       552.1       552.7       553.4       554.0       554.6       555.2       555.8       556.3    
        556.9       557.4       557.9       558.4       558.9       559.4       559.9       560.4       560.8       561.3    
        561.7       562.1       562.5       562.9       563.3       563.7       564.0       564.4       564.7       565.0    
        565.3       565.7       566.0       566.2       566.5       566.8       567.1       567.3       567.5       567.8    
        568.0       568.2       568.4       568.7       568.8       569.0       569.2       569.4       569.6       569.7    
        569.9       570.0       570.2       570.3       570.4       570.5       570.6       570.7       570.8       570.9    
        571.0       571.1       571.1       571.2       571.2       571.3       571.3       571.4       571.4       571.5    
        571.5       571.6       571.6       571.7       571.7       571.8       571.9       571.9       572.0       572.1    
        572.2       572.5       573.0       573.7       574.4       575.1       575.7       576.3       576.9       577.5    
        578.0       578.5       579.0       579.5       579.9       580.4       580.8       581.2       581.6       581.9    
        582.3       582.6       582.9       583.2       583.5       583.8       584.1       584.3       584.6       584.8    
        585.0       585.2       585.5       585.7       585.8       586.0       586.2       586.4       586.6       586.8    
        586.9       587.1       587.3       587.5       587.6       587.8       587.9       588.0       588.1       588.2    
        588.5       588.7       589.1       589.6       590.0       590.3       590.7       591.0       591.4       591.7    
        592.1       592.4       592.6       592.9       593.1       593.3       593.4       593.5       593.6       593.6    

 HEAD WILL BE SAVED ON UNIT   51 AT END OF TIME STEP    1, STRESS PERIOD    1
1
  VOLUMETRIC BUDGET FOR ENTIRE MODEL AT END OF TIME STEP    1, STRESS PERIOD   1
  ------------------------------------------------------------------------------

     CUMULATIVE VOLUMES      L**3       RATES FOR THIS TIME STEP      L**3/T
     ------------------                 ------------------------

           IN:                                      IN:
           ---                                      ---
             STORAGE =           0.0000               STORAGE =           0.0000
       CONSTANT HEAD =           0.0000         CONSTANT HEAD =           0.0000
               WELLS =           0.0000                 WELLS =           0.0000
       RIVER LEAKAGE =     7183373.5000         RIVER LEAKAGE =     7183373.5000
            RECHARGE =    97500000.0000              RECHARGE =    97500000.0000

            TOTAL IN =   104683376.0000              TOTAL IN =   104683376.0000

          OUT:                                     OUT:
          ----                                     ----
             STORAGE =           0.0000               STORAGE =           0.0000
       CONSTANT HEAD =           0.0000         CONSTANT HEAD =           0.0000
               WELLS =      133000.0000                 WELLS =      133000.0000
       RIVER LEAKAGE =   104550376.0000         RIVER LEAKAGE =   104550376.0000
            RECHARGE =           0.0000              RECHARGE =           0.0000

           TOTAL OUT =   104683376.0000             TOTAL OUT =   104683376.0000

            IN - OUT =           0.0000              IN - OUT =           0.0000

 PERCENT DISCREPANCY =           0.00     PERCENT DISCREPANCY =           0.00






         TIME SUMMARY AT END OF TIME STEP    1 IN STRESS PERIOD    1
                    SECONDS     MINUTES      HOURS       DAYS        YEARS
                    -----------------------------------------------------------
   TIME STEP LENGTH  86400.      1440.0      24.000      1.0000     2.73785E-03
 STRESS PERIOD TIME  86400.      1440.0      24.000      1.0000     2.73785E-03
         TOTAL TIME  86400.      1440.0      24.000      1.0000     2.73785E-03
1

 Run end date and time (yyyy/mm/dd hh:mm:ss): 2020/04/06 15:12:55
 Elapsed run time:  1.357 Seconds

