                                  MODFLOW-2005     
      U.S. GEOLOGICAL SURVEY MODULAR FINITE-DIFFERENCE GROUND-WATER FLOW MODEL
                            VERSION 1.12.00 2/3/2017

 LIST FILE: my_model.list
                         UNIT    2

 OPENING my_model.dis
 FILE TYPE:DIS   UNIT   11   STATUS:OLD    
 FORMAT:FORMATTED              ACCESS:SEQUENTIAL          

 OPENING my_model.bas
 FILE TYPE:BAS6   UNIT   13   STATUS:OLD    
 FORMAT:FORMATTED              ACCESS:SEQUENTIAL          

 OPENING my_model.lpf
 FILE TYPE:LPF   UNIT   15   STATUS:OLD    
 FORMAT:FORMATTED              ACCESS:SEQUENTIAL          

 OPENING my_model.rch
 FILE TYPE:RCH   UNIT   19   STATUS:OLD    
 FORMAT:FORMATTED              ACCESS:SEQUENTIAL          

 OPENING my_model.riv
 FILE TYPE:RIV   UNIT   18   STATUS:OLD    
 FORMAT:FORMATTED              ACCESS:SEQUENTIAL          

 OPENING my_model.oc
 FILE TYPE:OC   UNIT   14   STATUS:OLD    
 FORMAT:FORMATTED              ACCESS:SEQUENTIAL          

 OPENING my_model.pcg
 FILE TYPE:PCG   UNIT   27   STATUS:OLD    
 FORMAT:FORMATTED              ACCESS:SEQUENTIAL          

 OPENING my_model.cbc
 FILE TYPE:DATA(BINARY)   UNIT    1   STATUS:REPLACE
 FORMAT:BINARY                 ACCESS:SEQUENTIAL          

 OPENING my_model.hds
 FILE TYPE:DATA(BINARY)   UNIT   51   STATUS:REPLACE
 FORMAT:BINARY                 ACCESS:SEQUENTIAL          

 BAS -- BASIC PACKAGE, VERSION 7, 5/2/2005 INPUT READ FROM UNIT   13
 
 MODFLOW was compiled using mixed precision
 Precision of REAL variables:           6
 Precision of DOUBLE PRECISION variables:          15

 DISCRETIZATION INPUT DATA READ FROM UNIT   11
 # DIS package for  MODFLOW-2005, generated by Flopy.
    1 LAYERS       160 ROWS        90 COLUMNS
    1 STRESS PERIOD(S) IN SIMULATION
 MODEL TIME UNIT IS DAYS
 MODEL LENGTH UNIT IS FEET
  Confining bed flag for each layer:
   0

                     DELR =   1000.00    

                     DELC =   1000.00    

 TOP ELEVATION OF LAYER 1 =   0.00000    

   MODEL LAYER BOTTOM EL. =  -50.0000     FOR LAYER   1


 STRESS PERIOD     LENGTH       TIME STEPS     MULTIPLIER FOR DELT    SS FLAG
 ----------------------------------------------------------------------------
        1         1.000000          1                    1.000         SS

 STEADY-STATE SIMULATION



 
 # BAS6 package for  MODFLOW-2005, generated by Flopy.                           
 THE FREE FORMAT OPTION HAS BEEN SELECTED



                     BOUNDARY ARRAY FOR LAYER   1
 READING ON UNIT   13 WITH FORMAT: (90I10)             

 AQUIFER HEAD WILL BE SET TO  -999.99     AT ALL NO-FLOW NODES (IBOUND=0).



                       INITIAL HEAD FOR LAYER   1
 READING ON UNIT   13 WITH FORMAT: (90E15.6)           
 # OC package for  MODFLOW-2005, generated by Flopy.

 OUTPUT CONTROL IS SPECIFIED ONLY AT TIME STEPS FOR WHICH OUTPUT IS DESIRED
 COMPACT CELL-BY-CELL BUDGET FILES WILL BE WRITTEN
 AUXILIARY DATA WILL BE SAVED IN CELL-BY-CELL BUDGET FILES
 HEAD PRINT FORMAT CODE IS   0    DRAWDOWN PRINT FORMAT CODE IS   0
 HEADS WILL BE SAVED ON UNIT   51    DRAWDOWNS WILL BE SAVED ON UNIT    0

 LPF -- LAYER-PROPERTY FLOW PACKAGE, VERSION 7, 5/2/2005
         INPUT READ FROM UNIT   15
 # LPF package for  MODFLOW-2005, generated by Flopy.
 CELL-BY-CELL FLOWS WILL BE SAVED ON UNIT    1
 HEAD AT CELLS THAT CONVERT TO DRY= -1.00000E+30
 No named parameters

   LAYER FLAGS:
 LAYER       LAYTYP        LAYAVG         CHANI        LAYVKA        LAYWET
 ---------------------------------------------------------------------------
    1             1             0     1.000E+00             0             0

   INTERPRETATION OF LAYER FLAGS:
                        INTERBLOCK     HORIZONTAL    DATA IN
         LAYER TYPE   TRANSMISSIVITY   ANISOTROPY   ARRAY VKA   WETTABILITY
 LAYER      (LAYTYP)      (LAYAVG)       (CHANI)      (LAYVKA)      (LAYWET)
 ---------------------------------------------------------------------------
    1   CONVERTIBLE      HARMONIC     1.000E+00    VERTICAL K  NON-WETTABLE

 WETTING CAPABILITY IS NOT ACTIVE IN ANY LAYER



              HYD. COND. ALONG ROWS FOR LAYER   1
 READING ON UNIT   15 WITH FORMAT: (90E15.6)           



                VERTICAL HYD. COND. FOR LAYER   1
 READING ON UNIT   15 WITH FORMAT: (90E15.6)           

 RIV -- RIVER PACKAGE, VERSION 7, 5/2/2005 INPUT READ FROM UNIT   18
 # RIV package for  MODFLOW-2005, generated by Flopy.
 No named parameters
 MAXIMUM OF    213 ACTIVE RIVER REACHES AT ONE TIME


     0 River parameters

 RCH -- RECHARGE PACKAGE, VERSION 7, 5/2/2005 INPUT READ FROM UNIT   19
 # RCH package for  MODFLOW-2005, generated by Flopy.
 No named parameters
 OPTION 3 -- RECHARGE TO HIGHEST ACTIVE NODE IN EACH VERTICAL COLUMN


     0 Recharge parameters

 PCG -- CONJUGATE-GRADIENT SOLUTION PACKAGE, VERSION 7, 5/2/2005
 # PCG package for  MODFLOW-2005, generated by Flopy.
 MAXIMUM OF     50 CALLS OF SOLUTION ROUTINE
 MAXIMUM OF     30 INTERNAL ITERATIONS PER CALL TO SOLUTION ROUTINE
 MATRIX PRECONDITIONING TYPE :    1



                                    SOLUTION BY THE CONJUGATE-GRADIENT METHOD
                                   -------------------------------------------
                    MAXIMUM NUMBER OF CALLS TO PCG ROUTINE =       50
                        MAXIMUM ITERATIONS PER CALL TO PCG =       30
                               MATRIX PRECONDITIONING TYPE =        1
        RELAXATION FACTOR (ONLY USED WITH PRECOND. TYPE 1) =    0.10000E+01
 PARAMETER OF POLYNOMIAL PRECOND. = 2 (2) OR IS CALCULATED :        0
                         HEAD CHANGE CRITERION FOR CLOSURE =    0.10000E-04
                     RESIDUAL CHANGE CRITERION FOR CLOSURE =    0.10000E-04
            PCG HEAD AND RESIDUAL CHANGE PRINTOUT INTERVAL =      999
     PRINTING FROM SOLVER IS LIMITED(1) OR SUPPRESSED (>1) =        3
                            STEADY-STATE DAMPING PARAMETER =    0.10000E+01
                               TRANSIENT DAMPING PARAMETER =    0.10000E+01
1
                            STRESS PERIOD NO.    1, LENGTH =   1.000000    
                            -----------------------------------------------

                              NUMBER OF TIME STEPS =     1

                               MULTIPLIER FOR DELT =     1.000

                            INITIAL TIME STEP SIZE =   1.000000    

 REACH NO.  LAYER   ROW   COL     STAGE      CONDUCTANCE     BOTTOM EL.         
 -------------------------------------------------------------------------------
      1      1     16     19       417.0           5000.           414.0    
      2      1     17     22       417.0           5000.           414.0    
      3      1     19     24       417.0           5000.           414.0    
      4      1     20     26       417.0           5000.           414.0    
      5      1     22     28       404.0           5000.           401.0    
      6      1     23     30       404.0           5000.           401.0    
      7      1     25     33       404.0           5000.           401.0    
      8      1     26     35       404.0           5000.           401.0    
      9      1     27     37       401.0           5000.           398.0    
     10      1     29     39       401.0           5000.           398.0    
     11      1     32     39       401.0           5000.           398.0    
     12      1     35     38       401.0           5000.           398.0    
     13      1     37     38       401.0           5000.           398.0    
     14      1     40     37       401.0           5000.           398.0    
     15      1     42     37       401.0           5000.           398.0    
     16      1     45     36       401.0           5000.           398.0    
     17      1     47     35       401.0           5000.           398.0    
     18      1     48     33       410.0           5000.           407.0    
     19      1     50     30       401.0           5000.           398.0    
     20      1     51     29       401.0           5000.           398.0    
     21      1     52     27       401.0           5000.           398.0    
     22      1     54     24       401.0           5000.           398.0    
     23      1     56     22       401.0           5000.           398.0    
     24      1     57     21       401.0           5000.           398.0    
     25      1     60     19       401.0           5000.           398.0    
     26      1     62     19       401.0           5000.           398.0    
     27      1     65     17       401.0           5000.           398.0    
     28      1     67     14       401.0           5000.           398.0    
     29      1     70     11       401.0           5000.           398.0    
     30      1     73      9       398.0           5000.           395.0    
     31      1     77      8       397.0           5000.           394.0    
     32      1     81      9       393.0           5000.           390.0    
     33      1     84     10       397.0           5000.           394.0    
     34      1     86     13       391.0           5000.           388.0    
     35      1     90     15       391.0           5000.           388.0    
     36      1     92     16       391.0           5000.           388.0    
     37      1     95     17       391.0           5000.           388.0    
     38      1     97     18       391.0           5000.           388.0    
     39      1    100     18       391.0           5000.           388.0    
     40      1    103     18       388.0           5000.           385.0    
     41      1    105     18       388.0           5000.           385.0    
     42      1    108     18       388.0           5000.           385.0    
     43      1    111     17       388.0           5000.           385.0    
     44      1    113     17       388.0           5000.           385.0    
     45      1    116     16       388.0           5000.           385.0    
     46      1    118     15       388.0           5000.           385.0    
     47      1    121     13       388.0           5000.           385.0    
     48      1    123     12       388.0           5000.           385.0    
     49      1    124     10       388.0           5000.           385.0    
     50      1    126      7       388.0           5000.           385.0    
     51      1    128      6       387.0           5000.           384.0    
     52      1    130      4       384.0           5000.           381.0    
     53      1    132      3       384.0           5000.           381.0    
     54      1    135      2       384.0           5000.           381.0    
     55      1     15     17       417.0           5000.           414.0    
     56      1     13     15       417.0           5000.           414.0    
     57      1     12     13       417.0           5000.           414.0    
     58      1     11     12       417.0           5000.           414.0    
     59      1     10     10       417.0           5000.           414.0    
     60      1     64     18       411.0           5000.           408.0    
     61      1     66     15       401.0           5000.           398.0    
     62      1     69     12       401.0           5000.           398.0    
     63      1     71      9       401.0           5000.           398.0    
     64      1     75      9       398.0           5000.           395.0    
     65      1     79      9       397.0           5000.           394.0    
     66      1     82     10       397.0           5000.           394.0    
     67      1     85     12       391.0           5000.           388.0    
     68      1     88     14       391.0           5000.           388.0    
     69      1     61     19       401.0           5000.           398.0    
     70      1     64     17       401.0           5000.           398.0    
     71      1     66     16       401.0           5000.           398.0    
     72      1     67     15       401.0           5000.           398.0    
     73      1     68     13       401.0           5000.           398.0    
     74      1     69     11       401.0           5000.           398.0    
     75      1     71     10       401.0           5000.           398.0    
     76      1     72      9       401.0           5000.           398.0    
     77      1     74      9       398.0           5000.           395.0    
     78      1     76      8       391.0           5000.           388.0    
     79      1     78      8       397.0           5000.           394.0    
     80      1     80      9       393.0           5000.           390.0    
     81      1     81      9       393.0           5000.           390.0    
     82      1     83     10       397.0           5000.           394.0    
     83      1     84     11       397.0           5000.           394.0    
     84      1     86     12       391.0           5000.           388.0    
     85      1     87     13       391.0           5000.           388.0    
     86      1     89     14       391.0           5000.           388.0    
     87      1     58     20       401.0           5000.           398.0    
     88      1     56     21       401.0           5000.           398.0    
     89      1     55     23       401.0           5000.           398.0    
     90      1     53     25       401.0           5000.           398.0    
     91      1     52     28       401.0           5000.           398.0    
     92      1     51     29       401.0           5000.           398.0    
     93      1     49     31       401.0           5000.           398.0    
     94      1     48     34       401.0           5000.           398.0    
     95      1     44     37       401.0           5000.           398.0    
     96      1     44     37       404.0           5000.           401.0    
     97      1     44     38       404.0           5000.           401.0    
     98      1     44     38       404.0           5000.           401.0    
     99      1     44     39       404.0           5000.           401.0    
    100      1     44     39       405.0           5000.           402.0    
    101      1     44     39       405.0           5000.           402.0    
    102      1     44     40       405.0           5000.           402.0    
    103      1     44     40       411.0           5000.           408.0    
    104      1     44     41       411.0           5000.           408.0    
    105      1     44     42       411.0           5000.           408.0    
    106      1     44     42       414.0           5000.           411.0    
    107      1     44     42       414.0           5000.           411.0    
    108      1     44     43       414.0           5000.           411.0    
    109      1     44     43       414.0           5000.           411.0    
    110      1     44     44       414.0           5000.           411.0    
    111      1     44     44       414.0           5000.           411.0    
    112      1     44     45       414.0           5000.           411.0    
    113      1     44     46       414.0           5000.           411.0    
    114      1     44     46       414.0           5000.           411.0    
    115      1     44     47       414.0           5000.           411.0    
    116      1     44     47       414.0           5000.           411.0    
    117      1     44     48       414.0           5000.           411.0    
    118      1     44     48       414.0           5000.           411.0    
    119      1     44     49       416.0           5000.           413.0    
    120      1     44     49       414.0           5000.           411.0    
    121      1     44     50       414.0           5000.           411.0    
    122      1     45     51       417.0           5000.           414.0    
    123      1     45     52       417.0           5000.           414.0    
    124      1     45     53       417.0           5000.           414.0    
    125      1     45     54       417.0           5000.           414.0    
    126      1     45     55       417.0           5000.           414.0    
    127      1     45     55       417.0           5000.           414.0    
    128      1     45     56       417.0           5000.           414.0    
    129      1     45     56       417.0           5000.           414.0    
    130      1     45     57       417.0           5000.           414.0    
    131      1     45     58       417.0           5000.           414.0    
    132      1     44     58       417.0           5000.           414.0    
    133      1     44     59       417.0           5000.           414.0    
    134      1     44     60       417.0           5000.           414.0    
    135      1     44     61       417.0           5000.           414.0    
    136      1     43     61       417.0           5000.           414.0    
    137      1     16     19       417.0           5000.           414.0    
    138      1     17     22       417.0           5000.           414.0    
    139      1     19     24       417.0           5000.           414.0    
    140      1     20     26       417.0           5000.           414.0    
    141      1     22     28       404.0           5000.           401.0    
    142      1     23     30       404.0           5000.           401.0    
    143      1     25     33       404.0           5000.           401.0    
    144      1     26     35       404.0           5000.           401.0    
    145      1     27     37       401.0           5000.           398.0    
    146      1     29     39       401.0           5000.           398.0    
    147      1     32     39       401.0           5000.           398.0    
    148      1     35     38       401.0           5000.           398.0    
    149      1     37     38       401.0           5000.           398.0    
    150      1     40     37       401.0           5000.           398.0    
    151      1     42     37       401.0           5000.           398.0    
    152      1     45     36       401.0           5000.           398.0    
    153      1     47     35       401.0           5000.           398.0    
    154      1     50     34       410.0           5000.           407.0    
    155      1     52     33       401.0           5000.           398.0    
    156      1     55     32       401.0           5000.           398.0    
    157      1     57     31       401.0           5000.           398.0    
    158      1     59     30       401.0           5000.           398.0    
    159      1     62     28       401.0           5000.           398.0    
    160      1     64     27       401.0           5000.           398.0    
    161      1     66     26       401.0           5000.           398.0    
    162      1     69     24       401.0           5000.           398.0    
    163      1     71     23       401.0           5000.           398.0    
    164      1     73     22       401.0           5000.           398.0    
    165      1     76     21       401.0           5000.           398.0    
    166      1     78     20       398.0           5000.           395.0    
    167      1     80     18       397.0           5000.           394.0    
    168      1     82     17       393.0           5000.           390.0    
    169      1     85     15       397.0           5000.           394.0    
    170      1     87     15       391.0           5000.           388.0    
    171      1     90     15       391.0           5000.           388.0    
    172      1     92     16       391.0           5000.           388.0    
    173      1     95     17       391.0           5000.           388.0    
    174      1     97     18       391.0           5000.           388.0    
    175      1    100     18       391.0           5000.           388.0    
    176      1    103     18       388.0           5000.           385.0    
    177      1    105     18       388.0           5000.           385.0    
    178      1    108     18       388.0           5000.           385.0    
    179      1    111     17       388.0           5000.           385.0    
    180      1    113     17       388.0           5000.           385.0    
    181      1    116     16       388.0           5000.           385.0    
    182      1    118     15       388.0           5000.           385.0    
    183      1    121     13       388.0           5000.           385.0    
    184      1    123     12       388.0           5000.           385.0    
    185      1    124     10       388.0           5000.           385.0    
    186      1    126      7       388.0           5000.           385.0    
    187      1    128      6       387.0           5000.           384.0    
    188      1    130      4       384.0           5000.           381.0    
    189      1    132      3       384.0           5000.           381.0    
    190      1    135      2       384.0           5000.           381.0    
    191      1     24     32       404.0           5000.           401.0    
    192      1     23     32       405.0           5000.           402.0    
    193      1     22     33       405.0           5000.           402.0    
    194      1     22     33       405.0           5000.           402.0    
    195      1     21     33       405.0           5000.           402.0    
    196      1     20     33       405.0           5000.           402.0    
    197      1     20     33       407.0           5000.           404.0    
    198      1     19     33       407.0           5000.           404.0    
    199      1     18     33       407.0           5000.           404.0    
    200      1     18     33       407.0           5000.           404.0    
    201      1     17     34       407.0           5000.           404.0    
    202      1     16     34       407.0           5000.           404.0    
    203      1     16     34       407.0           5000.           404.0    
    204      1     15     35       407.0           5000.           404.0    
    205      1     14     35       407.0           5000.           404.0    
    206      1     14     35       407.0           5000.           404.0    
    207      1     13     36       407.0           5000.           404.0    
    208      1     13     36       408.0           5000.           405.0    
    209      1     12     36       408.0           5000.           405.0    
    210      1     13     37       408.0           5000.           405.0    
    211      1     13     38       408.0           5000.           405.0    
    212      1     14     39       408.0           5000.           405.0    
    213      1     14     39       408.0           5000.           405.0    

    213 RIVER REACHES

                 RECHARGE =  1.000000E-05
 
 SOLVING FOR HEAD 

 OUTPUT CONTROL FOR STRESS PERIOD    1   TIME STEP    1
    PRINT HEAD FOR ALL LAYERS
    PRINT BUDGET
    SAVE HEAD FOR ALL LAYERS
    SAVE BUDGET
 UBDSV2 SAVING "   CONSTANT HEAD" ON UNIT   1 AT TIME STEP  1, STRESS PERIOD   1
 UBDSV1 SAVING "FLOW RIGHT FACE " ON UNIT   1 AT TIME STEP  1, STRESS PERIOD   1
 UBDSV1 SAVING "FLOW FRONT FACE " ON UNIT   1 AT TIME STEP  1, STRESS PERIOD   1
1
              HEAD IN LAYER   1 AT END OF TIME STEP   1 IN STRESS PERIOD    1
  ---------------------------------------------------------------------------

            1           2           3           4           5           6           7           8           9          10
           11          12          13          14          15          16          17          18          19          20
           21          22          23          24          25          26          27          28          29          30
           31          32          33          34          35          36          37          38          39          40
           41          42          43          44          45          46          47          48          49          50
           51          52          53          54          55          56          57          58          59          60
           61          62          63          64          65          66          67          68          69          70
           71          72          73          74          75          76          77          78          79          80
           81          82          83          84          85          86          87          88          89          90
 ........................................................................................................................
   1    445.4       445.2       445.0       444.6       444.1       443.6       443.0       442.4       441.8       441.3    
        440.9       440.6       440.5       440.4       440.5       440.7       440.9       441.3       441.7       442.1    
        442.6       443.2       443.8       444.4       445.1       445.8       446.6       447.6       448.6       449.8    
        451.1       452.7       454.5       456.6       459.0       461.7       464.7       468.1       471.8       475.8    
        480.1       484.6       489.4       494.3       499.4       504.6       509.8       515.1       520.4       525.7    
        531.0       536.3       541.5       546.7       551.8       556.8       561.7       566.6       571.3       576.0    
        580.5       584.9       589.2       593.4       597.5       601.5       605.3       609.0       612.5       616.0    
        619.2       622.4       625.4       628.2       630.9       633.5       635.8       638.1       640.1       642.0    
        643.7       645.3       646.7       647.9       649.0       649.8       650.5       651.1       651.4       651.6    
   2    445.3       445.2       444.9       444.5       444.0       443.4       442.8       442.1       441.5       441.0    
        440.6       440.3       440.1       440.1       440.2       440.4       440.7       441.0       441.4       441.9    
        442.4       442.9       443.5       444.1       444.8       445.5       446.3       447.2       448.2       449.4    
        450.7       452.3       454.0       456.1       458.4       461.1       464.1       467.5       471.2       475.3    
        479.6       484.2       489.0       494.0       499.1       504.3       509.6       514.9       520.2       525.6    
        530.9       536.2       541.4       546.6       551.7       556.7       561.6       566.5       571.2       575.9    
        580.4       584.8       589.2       593.4       597.4       601.4       605.2       608.9       612.5       615.9    
        619.2       622.3       625.3       628.2       630.9       633.4       635.8       638.0       640.1       642.0    
        643.7       645.3       646.7       647.9       648.9       649.8       650.5       651.0       651.4       651.6    
   3    445.2       445.0       444.7       444.3       443.7       443.1       442.4       441.7       441.0       440.4    
        440.0       439.7       439.5       439.5       439.6       439.8       440.1       440.5       440.9       441.4    
        441.9       442.5       443.0       443.6       444.3       445.0       445.8       446.6       447.6       448.7    
        449.9       451.4       453.1       455.1       457.4       460.0       463.1       466.5       470.2       474.3    
        478.7       483.4       488.2       493.3       498.5       503.7       509.1       514.4       519.8       525.2    
        530.6       535.9       541.1       546.3       551.4       556.5       561.4       566.3       571.0       575.7    
        580.2       584.7       589.0       593.2       597.3       601.2       605.1       608.8       612.4       615.8    
        619.1       622.2       625.2       628.1       630.8       633.3       635.7       637.9       640.0       641.9    
        643.6       645.2       646.6       647.8       648.9       649.8       650.5       651.0       651.4       651.5    
   4    445.0       444.9       444.5       444.0       443.4       442.6       441.8       440.9       440.2       439.5    
        439.0       438.7       438.5       438.5       438.7       439.0       439.3       439.7       440.2       440.7    
        441.2       441.7       442.3       442.9       443.5       444.2       444.9       445.7       446.5       447.5    
        448.7       450.0       451.7       453.5       455.8       458.4       461.4       464.8       468.7       472.8    
        477.3       482.1       487.1       492.3       497.6       502.9       508.4       513.8       519.2       524.7    
        530.1       535.4       540.7       545.9       551.1       556.1       561.1       565.9       570.7       575.4    
        580.0       584.4       588.7       593.0       597.1       601.0       604.9       608.6       612.2       615.6    
        618.9       622.1       625.1       627.9       630.6       633.2       635.6       637.8       639.9       641.8    
        643.5       645.1       646.5       647.7       648.8       649.7       650.4       650.9       651.3       651.5    
   5    444.8       444.6       444.2       443.7       442.9       442.0       441.0       440.0       439.0       438.2    
        437.6       437.3       437.2       437.2       437.5       437.8       438.2       438.7       439.2       439.7    
        440.3       440.8       441.4       441.9       442.5       443.1       443.7       444.4       445.2       446.1    
        447.1       448.3       449.7       451.5       453.6       456.1       459.1       462.6       466.5       470.8    
        475.5       480.4       485.6       490.9       496.4       501.9       507.4       513.0       518.5       524.0    
        529.4       534.8       540.1       545.4       550.6       555.7       560.6       565.5       570.3       575.0    
        579.6       584.1       588.4       592.6       596.8       600.7       604.6       608.3       611.9       615.4    
        618.7       621.8       624.9       627.7       630.5       633.0       635.4       637.7       639.8       641.7    
        643.4       645.0       646.4       647.6       648.7       649.6       650.3       650.8       651.2       651.4    
   6    444.7       444.4       444.0       443.3       442.4       441.3       440.1       438.8       437.5       436.5    
        435.8       435.5       435.4       435.6       435.9       436.4       436.9       437.4       438.0       438.6    
        439.1       439.7       440.2       440.8       441.3       441.8       442.3       442.9       443.5       444.2    
        445.1       446.1       447.3       448.8       450.8       453.2       456.2       459.7       463.8       468.3    
        473.2       478.4       483.8       489.3       494.9       500.6       506.3       511.9       517.5       523.1    
        528.6       534.1       539.5       544.8       550.0       555.1       560.1       565.0       569.8       574.5    
        579.1       583.6       588.0       592.3       596.4       600.4       604.3       608.0       611.6       615.1    
        618.4       621.6       624.6       627.5       630.2       632.8       635.2       637.5       639.6       641.5    
        643.3       644.8       646.3       647.5       648.6       649.5       650.2       650.7       651.1       651.3    
   7    444.5       444.2       443.7       442.9       441.9       440.6       439.0       437.3       435.6       434.2    
        433.4       433.1       433.2       433.6       434.1       434.7       435.3       435.9       436.6       437.2    
        437.8       438.4       438.9       439.4       439.8       440.3       440.7       441.2       441.6       442.1    
        442.7       443.4       444.4       445.6       447.3       449.6       452.5       456.1       460.4       465.2    
        470.4       475.9       481.6       487.4       493.2       499.1       504.9       510.7       516.5       522.1    
        527.7       533.3       538.7       544.0       549.3       554.4       559.5       564.4       569.3       574.0    
        578.6       583.1       587.5       591.8       595.9       600.0       603.8       607.6       611.2       614.7    
        618.1       621.3       624.3       627.2       630.0       632.6       635.0       637.3       639.4       641.3    
        643.1       644.7       646.1       647.3       648.4       649.3       650.0       650.6       650.9       651.1    
   8    444.4       444.1       443.5       442.6       441.4       439.8       437.9       435.6       433.2       431.1    
        430.4       430.3       430.6       431.2       432.0       432.7       433.5       434.3       435.0       435.7    
        436.3       436.9       437.4       437.8       438.2       438.6       438.9       439.2       439.4       439.7    
        440.0       440.3       440.9       441.7       443.1       445.1       448.0       451.7       456.3       461.4    
        467.1       473.0       479.0       485.2       491.3       497.4       503.4       509.4       515.2       521.0    
        526.7       532.3       537.8       543.2       548.5       553.7       558.7       563.7       568.6       573.3    
        578.0       582.5       586.9       591.2       595.4       599.4       603.4       607.1       610.8       614.3    
        617.7       620.9       624.0       626.9       629.7       632.3       634.7       637.0       639.1       641.1    
        642.9       644.5       645.9       647.2       648.2       649.1       649.9       650.4       650.8       651.0    
   9    444.4       444.1       443.4       442.5       441.1       439.3       436.9       434.0       430.3       426.3    
        426.4       426.8       427.6       428.6       429.6       430.6       431.5       432.4       433.3       434.0    
        434.6       435.2       435.7       436.1       436.5       436.7       436.9       437.0       437.0       437.0    
        436.9       436.9       436.9       437.2       437.9       439.5       442.3       446.3       451.3       457.1    
        463.3       469.7       476.3       482.8       489.2       495.6       501.8       507.9       513.9       519.8    
        525.6       531.2       536.8       542.2       547.6       552.8       557.9       562.9       567.8       572.6    
        577.3       581.8       586.3       590.6       594.8       598.9       602.8       606.6       610.3       613.8    
        617.2       620.5       623.6       626.5       629.3       631.9       634.4       636.7       638.8       640.8    
        642.6       644.2       645.7       646.9       648.0       649.0       649.7       650.2       650.6       650.8    
  10    444.5       444.2       443.5       442.5       441.0       439.0       436.4       432.8       427.4       417.3    
        422.1       422.6       424.1       425.7       427.0       428.3       429.4       430.5       431.4       432.2    
        432.9       433.5       434.0       434.3       434.6       434.8       434.8       434.7       434.5       434.2    
        433.7       433.2       432.6       432.0       431.7       432.4       435.3       439.7       445.4       452.0    
        459.0       466.2       473.3       480.3       487.1       493.7       500.1       506.4       512.5       518.5    
        524.3       530.1       535.7       541.2       546.6       551.8       557.0       562.0       567.0       571.8    
        576.5       581.1       585.6       589.9       594.1       598.2       602.2       606.0       609.7       613.3    
        616.7       620.0       623.1       626.1       628.9       631.6       634.0       636.4       638.5       640.5    
        642.3       644.0       645.4       646.7       647.8       648.7       649.5       650.0       650.4       650.6    
  11    444.8       444.5       443.8       442.7       441.2       439.2       436.6       433.3       429.0       424.0    
        422.0       417.2       420.4       422.8       424.4       425.9       427.3       428.4       429.4       430.3    
        431.0       431.6       432.1       432.4       432.6       432.7       432.6       432.3       431.9       431.3    
        430.4       429.3       427.9       426.3       424.4       423.0       426.6       431.6       438.4       446.3    
        454.5       462.5       470.3       477.7       484.9       491.7       498.4       504.8       511.0       517.1    
        523.0       528.8       534.5       540.1       545.5       550.8       556.0       561.1       566.0       570.9    
        575.6       580.2       584.7       589.1       593.4       597.5       601.5       605.4       609.1       612.7    
        616.2       619.5       622.6       625.6       628.5       631.1       633.7       636.0       638.2       640.2    
        642.0       643.7       645.2       646.5       647.6       648.5       649.3       649.8       650.2       650.4    
  12    445.2       444.9       444.2       443.1       441.7       439.8       437.4       434.5       431.1       427.6    
        424.6       420.9       417.2       420.7       421.5       423.5       425.1       426.4       427.4       428.3    
        429.1       429.7       430.2       430.5       430.6       430.6       430.4       429.9       429.3       428.4    
        427.1       425.5       423.4       420.6       416.3       408.3       416.2       421.6       430.1       440.1    
        449.9       459.0       467.4       475.3       482.7       489.8       496.6       503.2       509.5       515.7    
        521.7       527.5       533.3       538.9       544.3       549.7       554.9       560.0       565.0       569.9    
        574.7       579.3       583.9       588.3       592.6       596.7       600.8       604.7       608.4       612.1    
        615.6       618.9       622.1       625.1       628.0       630.7       633.2       635.6       637.8       639.9    
        641.7       643.4       644.9       646.2       647.3       648.3       649.0       649.6       650.0       650.2    
  13    445.7       445.4       444.8       443.8       442.4       440.7       438.6       436.1       433.3       430.3    
        427.5       424.7       422.1       421.0       417.2       421.4       423.0       424.3       425.4       426.3    
        427.1       427.7       428.2       428.5       428.6       428.5       428.1       427.6       426.7       425.6    
        424.0       422.0       419.5       416.1       411.8       407.5       408.1       408.3       420.2       433.9    
        445.7       455.9       464.9       473.1       480.8       488.0       494.9       501.6       508.0       514.2    
        520.3       526.2       531.9       537.6       543.1       548.5       553.7       558.9       563.9       568.8    
        573.6       578.3       582.9       587.3       591.7       595.9       600.0       603.9       607.7       611.4    
        614.9       618.3       621.5       624.6       627.5       630.2       632.8       635.2       637.4       639.5    
        641.4       643.1       644.6       645.9       647.1       648.0       648.8       649.4       649.7       649.9    
  14    446.4       446.1       445.5       444.6       443.3       441.7       439.9       437.7       435.3       432.8    
        430.3       427.8       425.6       423.7       421.8       421.6       421.1       422.3       423.2       424.3    
        425.1       425.7       426.1       426.5       426.6       426.4       426.0       425.3       424.3       422.9    
        421.2       419.0       416.1       412.4       407.1       409.1       410.6       411.1       408.2       429.4    
        443.0       453.7       462.9       471.3       479.0       486.3       493.3       500.0       506.4       512.7    
        518.8       524.8       530.5       536.2       541.7       547.2       552.5       557.6       562.7       567.7    
        572.5       577.2       581.8       586.3       590.7       595.0       599.1       603.1       606.9       610.6    
        614.2       617.6       620.9       624.0       626.9       629.7       632.3       634.8       637.0       639.1    
        641.0       642.7       644.3       645.6       646.8       647.8       648.5       649.1       649.5       649.7    
  15    447.2       446.9       446.3       445.5       444.3       442.9       441.2       439.3       437.2       435.0    
        432.8       430.6       428.5       426.4       424.3       422.0       417.2       420.3       420.8       422.3    
        423.1       423.5       424.1       424.5       424.6       424.4       423.9       423.1       422.0       420.5    
        418.6       416.3       413.4       410.0       407.1       410.9       414.0       417.0       421.2       432.3    
        443.1       452.8       461.7       469.8       477.5       484.8       491.7       498.4       504.9       511.2    
        517.3       523.3       529.1       534.8       540.3       545.8       551.1       556.3       561.4       566.4    
        571.3       576.1       580.7       585.3       589.7       594.0       598.1       602.2       606.0       609.8    
        613.4       616.9       620.2       623.3       626.3       629.2       631.8       634.3       636.6       638.7    
        640.6       642.4       644.0       645.3       646.5       647.5       648.3       648.9       649.3       649.5    
  16    448.0       447.8       447.3       446.5       445.4       444.2       442.7       441.0       439.1       437.1    
        435.1       433.1       431.0       429.0       426.9       424.6       422.1       420.8       417.1       420.7    
        421.5       421.1       422.0       422.5       422.7       422.5       421.9       421.0       419.8       418.3    
        416.3       413.9       411.0       407.0       409.7       413.3       417.1       421.5       427.1       435.2    
        444.0       452.6       460.9       468.7       476.2       483.3       490.2       496.9       503.4       509.6    
        515.8       521.7       527.6       533.3       538.9       544.3       549.7       554.9       560.1       565.1    
        570.0       574.8       579.5       584.1       588.5       592.9       597.1       601.2       605.1       608.9    
        612.6       616.1       619.5       622.7       625.7       628.6       631.3       633.8       636.1       638.3    
        640.2       642.0       643.6       645.0       646.2       647.2       648.0       648.6       649.0       649.2    
  17    449.0       448.7       448.2       447.5       446.6       445.4       444.1       442.5       440.9       439.1    
        437.2       435.3       433.4       431.5       429.5       427.4       425.4       423.7       421.9       421.8    
        420.7       417.1       420.1       420.8       421.0       420.7       420.1       419.1       417.8       416.2    
        414.3       412.0       409.3       407.1       411.3       415.3       419.6       424.5       430.2       437.2    
        444.8       452.6       460.3       467.7       475.0       482.0       488.8       495.4       501.8       508.0    
        514.2       520.1       526.0       531.7       537.3       542.8       548.2       553.4       558.6       563.7    
        568.6       573.5       578.2       582.8       587.4       591.7       596.0       600.1       604.2       608.0    
        611.7       615.3       618.7       622.0       625.1       628.0       630.7       633.3       635.6       637.8    
        639.8       641.7       643.3       644.7       645.9       646.9       647.8       648.4       648.8       649.0    
  18    449.9       449.7       449.3       448.6       447.7       446.7       445.5       444.1       442.6       440.9    
        439.2       437.4       435.6       433.8       431.9       430.0       428.1       426.4       424.9       423.7    
        422.3       420.5       420.2       419.4       419.5       419.2       418.3       417.2       415.9       414.3    
        412.5       410.2       407.0       409.3       412.8       416.9       421.3       426.3       432.0       438.4    
        445.3       452.5       459.7       466.8       473.8       480.6       487.3       493.8       500.2       506.4    
        512.5       518.5       524.3       530.0       535.6       541.1       546.5       551.8       557.0       562.1    
        567.1       572.0       576.8       581.5       586.1       590.5       594.9       599.1       603.1       607.0    
        610.8       614.4       617.9       621.2       624.4       627.3       630.1       632.7       635.2       637.4    
        639.4       641.3       642.9       644.4       645.6       646.7       647.5       648.1       648.5       648.7    
  19    450.9       450.7       450.3       449.7       448.9       447.9       446.8       445.5       444.1       442.6    
        441.0       439.4       437.7       435.9       434.1       432.3       430.5       428.8       427.2       425.7    
        424.1       422.3       420.4       417.0       418.3       417.8       416.7       415.3       413.9       412.5    
        410.9       409.0       407.0       410.0       413.7       417.8       422.3       427.3       432.9       438.9    
        445.4       452.1       458.9       465.8       472.5       479.2       485.8       492.2       498.5       504.7    
        510.8       516.7       522.5       528.3       533.9       539.4       544.8       550.1       555.4       560.5    
        565.6       570.5       575.3       580.1       584.7       589.2       593.6       597.9       602.0       606.0    
        609.9       613.6       617.1       620.5       623.7       626.7       629.5       632.2       634.7       636.9    
        639.0       640.9       642.6       644.1       645.3       646.4       647.2       647.9       648.3       648.5    
  20    451.9       451.7       451.3       450.8       450.0       449.2       448.1       446.9       445.6       444.2    
        442.7       441.2       439.5       437.9       436.1       434.4       432.7       431.0       429.3       427.6    
        425.8       424.0       422.0       419.8       418.6       417.0       415.2       413.2       411.9       410.7    
        409.4       407.9       406.0       409.9       413.9       418.1       422.6       427.6       433.0       438.8    
        445.0       451.4       458.0       464.6       471.2       477.7       484.2       490.5       496.8       502.9    
        509.0       514.9       520.7       526.4       532.0       537.6       543.0       548.4       553.6       558.8    
        563.9       568.9       573.8       578.6       583.3       587.9       592.3       596.7       600.9       604.9    
        608.8       612.6       616.2       619.7       622.9       626.0       628.9       631.6       634.2       636.5    
        638.6       640.5       642.2       643.8       645.0       646.1       647.0       647.6       648.1       648.3    
  21    452.8       452.7       452.3       451.8       451.1       450.3       449.3       448.3       447.0       445.7    
        444.3       442.8       441.3       439.6       438.0       436.3       434.6       432.9       431.1       429.4    
        427.5       425.6       423.5       421.3       419.2       416.7       413.6       410.2       409.6       408.8    
        407.9       406.7       405.1       409.5       413.6       417.8       422.3       427.2       432.5       438.2    
        444.2       450.4       456.8       463.3       469.7       476.1       482.5       488.8       495.0       501.1    
        507.0       512.9       518.7       524.4       530.1       535.6       541.1       546.4       551.7       557.0    
        562.1       567.1       572.1       577.0       581.7       586.4       590.9       595.4       599.6       603.8    
        607.8       611.6       615.3       618.8       622.2       625.3       628.3       631.1       633.6       636.0    
        638.2       640.2       641.9       643.5       644.8       645.9       646.8       647.4       647.9       648.1    
  22    453.8       453.6       453.3       452.8       452.2       451.4       450.5       449.5       448.3       447.1    
        445.7       444.3       442.8       441.3       439.7       438.0       436.3       434.6       432.8       431.0    
        429.1       427.1       424.9       422.6       420.0       416.8       412.3       404.1       407.2       406.7    
        406.6       405.9       405.0       409.2       413.1       417.1       421.4       426.2       431.4       437.0    
        442.9       449.1       455.4       461.7       468.1       474.4       480.7       486.9       493.0       499.1    
        505.0       510.9       516.7       522.4       528.0       533.5       539.0       544.4       549.7       555.0    
        560.2       565.3       570.3       575.3       580.1       584.9       589.5       594.0       598.4       602.6    
        606.7       610.6       614.4       618.0       621.4       624.6       627.7       630.5       633.1       635.6    
        637.8       639.8       641.6       643.2       644.5       645.7       646.6       647.2       647.7       647.9    
  23    454.7       454.5       454.2       453.8       453.2       452.5       451.6       450.6       449.5       448.4    
        447.1       445.7       444.3       442.8       441.2       439.6       437.9       436.2       434.4       432.5    
        430.6       428.5       426.3       423.9       421.2       418.1       414.3       410.0       408.1       404.1    
        405.7       405.0       406.2       409.0       412.2       415.8       419.9       424.6       429.8       435.4    
        441.3       447.4       453.6       459.9       466.3       472.5       478.8       484.9       491.0       497.0    
        502.9       508.7       514.5       520.2       525.8       531.3       536.8       542.3       547.6       552.9    
        558.2       563.4       568.5       573.5       578.4       583.2       587.9       592.5       597.0       601.4    
        605.5       609.6       613.4       617.1       620.6       623.9       627.0       629.9       632.6       635.1    
        637.4       639.5       641.3       642.9       644.3       645.5       646.4       647.1       647.5       647.8    
  24    455.5       455.4       455.1       454.7       454.1       453.4       452.6       451.7       450.7       449.5    
        448.3       447.0       445.6       444.1       442.6       441.0       439.3       437.6       435.8       433.9    
        432.0       429.9       427.7       425.3       422.7       419.8       416.6       413.5       410.9       408.3    
        406.8       404.1       405.7       408.1       410.6       413.9       417.7       422.3       427.5       433.2    
        439.2       445.4       451.6       458.0       464.3       470.5       476.7       482.8       488.8       494.8    
        500.7       506.5       512.2       517.8       523.5       529.0       534.5       540.0       545.4       550.7    
        556.0       561.3       566.4       571.6       576.6       581.5       586.3       591.0       595.6       600.1    
        604.3       608.5       612.4       616.2       619.8       623.2       626.4       629.4       632.2       634.7    
        637.0       639.2       641.0       642.7       644.1       645.3       646.2       646.9       647.4       647.7    
  25    456.3       456.2       455.9       455.5       455.0       454.3       453.5       452.7       451.7       450.6    
        449.4       448.1       446.8       445.3       443.8       442.3       440.6       438.9       437.1       435.2    
        433.3       431.2       429.0       426.7       424.2       421.6       418.8       416.1       413.5       411.2    
        409.1       406.7       404.1       406.8       408.2       411.1       414.4       419.2       424.6       430.5    
        436.7       443.0       449.4       455.8       462.1       468.4       474.5       480.6       486.6       492.5    
        498.3       504.0       509.7       515.4       521.0       526.5       532.0       537.5       543.0       548.4    
        553.7       559.1       564.3       569.5       574.6       579.7       584.6       589.5       594.2       598.7    
        603.1       607.4       611.4       615.3       619.0       622.5       625.8       628.8       631.7       634.3    
        636.7       638.9       640.8       642.5       643.9       645.2       646.1       646.9       647.3       647.6    
  26    457.0       456.9       456.6       456.3       455.8       455.1       454.4       453.5       452.6       451.5    
        450.4       449.1       447.8       446.4       444.9       443.4       441.8       440.1       438.3       436.4    
        434.5       432.5       430.3       428.1       425.7       423.2       420.7       418.2       415.8       413.6    
        411.5       409.4       407.6       406.8       404.1       407.7       409.6       415.1       421.0       427.3    
        433.8       440.5       447.0       453.5       459.9       466.1       472.2       478.3       484.2       490.0    
        495.8       501.5       507.1       512.8       518.3       523.9       529.4       534.9       540.4       545.8    
        551.3       556.7       562.1       567.4       572.6       577.8       582.8       587.8       592.6       597.3    
        601.9       606.2       610.4       614.4       618.2       621.8       625.2       628.3       631.2       633.9    
        636.4       638.6       640.6       642.3       643.8       645.1       646.1       646.8       647.3       647.6    
  27    457.7       457.6       457.3       457.0       456.5       455.9       455.1       454.3       453.4       452.4    
        451.2       450.0       448.7       447.4       445.9       444.4       442.8       441.1       439.4       437.5    
        435.6       433.6       431.5       429.4       427.1       424.8       422.4       420.1       417.8       415.6    
        413.6       411.6       409.9       408.5       406.8       405.8       401.1       410.5       416.7       423.6    
        430.7       437.7       444.5       451.1       457.5       463.8       469.8       475.8       481.7       487.4    
        493.2       498.8       504.4       510.0       515.5       521.0       526.6       532.1       537.6       543.1    
        548.7       554.2       559.6       565.1       570.5       575.8       581.0       586.1       591.1       595.9    
        600.6       605.1       609.4       613.5       617.4       621.1       624.6       627.8       630.8       633.6    
        636.1       638.4       640.4       642.2       643.7       645.0       646.0       646.8       647.3       647.6    
  28    458.3       458.2       457.9       457.6       457.1       456.5       455.8       455.0       454.1       453.1    
        452.0       450.8       449.6       448.2       446.8       445.3       443.7       442.0       440.3       438.5    
        436.6       434.7       432.6       430.5       428.3       426.1       423.9       421.7       419.5       417.4    
        415.4       413.5       411.7       410.2       408.6       407.4       406.2       408.7       411.6       419.5    
        427.5       435.0       442.0       448.7       455.1       461.3       467.4       473.3       479.1       484.7    
        490.4       495.9       501.5       507.0       512.5       518.0       523.6       529.1       534.7       540.3    
        545.9       551.5       557.1       562.6       568.2       573.6       579.0       584.3       589.4       594.4    
        599.2       603.9       608.3       612.6       616.6       620.4       624.0       627.3       630.4       633.3    
        635.9       638.2       640.3       642.1       643.7       645.0       646.1       646.9       647.4       647.6    
  29    458.8       458.7       458.4       458.1       457.6       457.0       456.4       455.6       454.7       453.7    
        452.7       451.5       450.3       448.9       447.5       446.0       444.5       442.8       441.1       439.4    
        437.5       435.6       433.6       431.5       429.4       427.3       425.2       423.0       420.9       418.9    
        416.9       415.0       413.2       411.6       410.0       408.7       407.4       406.3       401.2       415.2    
        424.7       432.6       439.7       446.4       452.8       458.9       464.9       470.6       476.3       481.9    
        487.4       492.9       498.4       503.8       509.3       514.8       520.3       525.9       531.5       537.2    
        542.9       548.6       554.3       560.1       565.7       571.4       576.9       582.4       587.7       592.9    
        597.9       602.7       607.3       611.7       615.9       619.8       623.5       626.9       630.1       633.0    
        635.7       638.1       640.3       642.1       643.7       645.1       646.2       647.0       647.5       647.8    
  30    459.2       459.1       458.8       458.5       458.1       457.5       456.8       456.1       455.2       454.3    
        453.2       452.1       450.8       449.5       448.1       446.7       445.1       443.5       441.8       440.1    
        438.3       436.4       434.4       432.4       430.4       428.3       426.2       424.1       422.1       420.0    
        418.1       416.2       414.4       412.6       411.1       409.6       408.4       407.6       408.0       415.3    
        423.2       430.6       437.6       444.2       450.5       456.5       462.3       467.9       473.5       478.9    
        484.4       489.7       495.1       500.5       505.9       511.3       516.8       522.4       528.1       533.8    
        539.6       545.5       551.4       557.3       563.2       569.0       574.8       580.5       586.0       591.4    
        596.5       601.5       606.3       610.8       615.2       619.2       623.0       626.6       629.8       632.8    
        635.6       638.1       640.3       642.2       643.8       645.2       646.3       647.1       647.7       648.0    
  31    459.5       459.4       459.2       458.9       458.4       457.9       457.2       456.5       455.6       454.7    
        453.6       452.5       451.3       450.0       448.6       447.2       445.7       444.1       442.4       440.7    
        438.9       437.0       435.1       433.1       431.1       429.1       427.1       425.0       423.0       421.0    
        419.0       417.1       415.2       413.4       411.7       410.1       408.7       407.7       407.9       414.4    
        421.8       429.0       435.7       442.1       448.2       454.0       459.6       465.1       470.5       475.8    
        481.1       486.3       491.6       496.9       502.2       507.6       513.1       518.7       524.4       530.2    
        536.1       542.1       548.2       554.4       560.5       566.5       572.6       578.5       584.2       589.8    
        595.2       600.4       605.3       610.0       614.5       618.7       622.6       626.3       629.6       632.7    
        635.6       638.1       640.4       642.3       644.0       645.4       646.6       647.4       648.0       648.3    
  32    459.8       459.6       459.4       459.1       458.7       458.1       457.5       456.8       455.9       455.0    
        454.0       452.8       451.6       450.4       449.0       447.6       446.1       444.5       442.8       441.1    
        439.3       437.5       435.6       433.7       431.7       429.7       427.7       425.7       423.7       421.7    
        419.7       417.7       415.8       413.9       412.1       410.3       408.5       406.2       401.2       412.5    
        420.6       427.6       434.0       440.1       446.0       451.5       457.0       462.3       467.4       472.6    
        477.7       482.8       487.9       493.0       498.2       503.6       509.0       514.6       520.4       526.3    
        532.4       538.5       544.8       551.2       557.6       563.9       570.2       576.4       582.4       588.2    
        593.8       599.2       604.4       609.3       613.9       618.2       622.3       626.0       629.5       632.7    
        635.6       638.2       640.5       642.5       644.3       645.7       646.9       647.7       648.3       648.6    
  33    459.9       459.8       459.6       459.3       458.8       458.3       457.7       456.9       456.1       455.2    
        454.2       453.1       451.9       450.6       449.3       447.8       446.3       444.8       443.1       441.4    
        439.7       437.9       436.0       434.1       432.2       430.2       428.2       426.2       424.2       422.1    
        420.1       418.1       416.1       414.1       412.2       410.3       408.5       407.3       407.9       413.8    
        420.2       426.5       432.5       438.2       443.7       449.1       454.2       459.3       464.2       469.1    
        474.0       478.9       483.9       488.9       494.0       499.2       504.6       510.2       516.0       522.0    
        528.2       534.6       541.2       547.8       554.5       561.2       567.8       574.3       580.6       586.7    
        592.5       598.1       603.5       608.6       613.3       617.8       622.0       625.9       629.5       632.7    
        635.7       638.4       640.8       642.9       644.6       646.1       647.3       648.2       648.8       649.1    
  34    460.0       459.9       459.6       459.3       458.9       458.4       457.7       457.0       456.2       455.3    
        454.3       453.2       452.0       450.7       449.4       448.0       446.5       444.9       443.3       441.6    
        439.9       438.1       436.2       434.3       432.4       430.5       428.5       426.5       424.5       422.4    
        420.4       418.3       416.2       414.1       412.0       409.9       407.8       406.4       409.3       414.3    
        419.9       425.5       431.0       436.4       441.5       446.5       451.4       456.2       460.9       465.5    
        470.2       474.9       479.6       484.5       489.4       494.5       499.8       505.4       511.2       517.3    
        523.7       530.4       537.3       544.3       551.3       558.4       565.3       572.1       578.8       585.1    
        591.3       597.1       602.7       608.0       612.9       617.5       621.8       625.8       629.5       632.9    
        636.0       638.7       641.1       643.3       645.1       646.6       647.8       648.7       649.3       649.6    
  35    459.9       459.8       459.6       459.3       458.9       458.3       457.7       457.0       456.2       455.3    
        454.2       453.2       452.0       450.7       449.4       448.0       446.5       444.9       443.3       441.6    
        439.9       438.1       436.3       434.4       432.5       430.5       428.6       426.6       424.6       422.5    
        420.4       418.3       416.2       414.0       411.7       409.2       406.1       401.1       408.3       413.9    
        419.2       424.5       429.5       434.5       439.2       443.9       448.4       452.9       457.3       461.7    
        466.1       470.6       475.1       479.7       484.5       489.4       494.6       500.1       506.0       512.2    
        518.8       525.7       533.0       540.4       547.9       555.4       562.8       570.0       577.0       583.7    
        590.1       596.2       602.0       607.5       612.6       617.4       621.8       625.9       629.7       633.2    
        636.3       639.1       641.6       643.8       645.6       647.2       648.4       649.3       649.9       650.3    
  36    459.8       459.7       459.5       459.2       458.7       458.2       457.6       456.9       456.0       455.1    
        454.1       453.0       451.8       450.6       449.2       447.8       446.3       444.8       443.2       441.5    
        439.8       438.0       436.2       434.3       432.4       430.5       428.5       426.5       424.5       422.4    
        420.3       418.2       416.0       413.7       411.4       408.9       406.3       404.3       408.6       413.6    
        418.5       423.3       428.0       432.5       436.9       441.2       445.4       449.5       453.6       457.7    
        461.9       466.0       470.3       474.6       479.1       483.9       488.9       494.3       500.1       506.4    
        513.3       520.6       528.3       536.2       544.3       552.3       560.2       567.8       575.2       582.3    
        589.0       595.4       601.4       607.1       612.4       617.3       621.9       626.1       630.0       633.6    
        636.8       639.6       642.2       644.4       646.3       647.9       649.1       650.1       650.7       651.0    
  37    459.6       459.5       459.2       458.9       458.5       458.0       457.4       456.6       455.8       454.9    
        453.9       452.8       451.6       450.3       449.0       447.6       446.1       444.5       442.9       441.2    
        439.5       437.7       435.9       434.1       432.2       430.2       428.3       426.3       424.2       422.2    
        420.0       417.9       415.6       413.3       411.0       408.5       405.6       401.1       408.1       413.2    
        417.8       422.2       426.4       430.5       434.5       438.4       442.2       446.0       449.7       453.5    
        457.3       461.2       465.1       469.2       473.4       477.8       482.6       487.8       493.6       500.0    
        507.1       514.9       523.2       531.8       540.5       549.2       557.6       565.8       573.6       581.1    
        588.1       594.8       601.0       606.9       612.4       617.4       622.1       626.5       630.5       634.1    
        637.4       640.3       642.9       645.1       647.1       648.7       650.0       650.9       651.6       651.9    
  38    459.3       459.1       458.9       458.6       458.2       457.7       457.0       456.3       455.5       454.6    
        453.5       452.4       451.2       450.0       448.6       447.2       445.7       444.1       442.5       440.8    
        439.1       437.3       435.5       433.6       431.8       429.8       427.9       425.9       423.8       421.7    
        419.6       417.4       415.2       412.9       410.5       408.2       406.3       405.8       409.1       413.1    
        417.1       420.9       424.7       428.4       431.9       435.4       438.8       442.2       445.6       449.1    
        452.5       456.0       459.6       463.3       467.2       471.2       475.7       480.6       486.2       492.6    
        500.0       508.4       517.6       527.1       536.6       546.0       555.2       563.9       572.2       580.0    
        587.4       594.3       600.8       606.9       612.5       617.7       622.6       627.0       631.1       634.8    
        638.1       641.1       643.7       646.0       648.0       649.6       650.9       651.9       652.5       652.9    
  39    458.8       458.7       458.5       458.2       457.8       457.2       456.6       455.9       455.0       454.1    
        453.1       452.0       450.8       449.5       448.1       446.7       445.2       443.6       442.0       440.3    
        438.5       436.8       434.9       433.1       431.2       429.2       427.3       425.3       423.3       421.2    
        419.1       416.9       414.6       412.2       409.8       407.3       405.4       406.6       409.4       412.7    
        416.2       419.6       422.9       426.2       429.3       432.3       435.3       438.3       441.3       444.4    
        447.5       450.7       453.9       457.2       460.5       464.1       468.0       472.5       477.7       484.1    
        491.8       501.1       511.3       522.0       532.7       543.0       552.9       562.2       571.0       579.2    
        586.9       594.1       600.8       607.1       612.9       618.2       623.2       627.7       631.8       635.6    
        639.0       642.0       644.7       647.0       649.0       650.7       652.0       653.0       653.6       654.0    
  40    458.3       458.2       458.0       457.7       457.3       456.7       456.1       455.3       454.5       453.5    
        452.5       451.4       450.2       448.9       447.5       446.0       444.5       442.9       441.3       439.6    
        437.8       436.0       434.2       432.3       430.4       428.5       426.5       424.6       422.5       420.5    
        418.4       416.2       413.9       411.5       408.9       405.8       401.1       405.6       408.9       412.1    
        415.2       418.2       421.1       423.8       426.5       429.0       431.5       434.1       436.7       439.4    
        442.2       445.0       447.8       450.7       453.5       456.5       459.7       463.4       468.0       473.9    
        481.9       492.5       504.5       516.8       528.8       540.2       550.9       560.9       570.2       578.8    
        586.8       594.2       601.1       607.5       613.5       618.9       624.0       628.6       632.8       636.6    
        640.0       643.1       645.8       648.2       650.2       651.9       653.2       654.2       654.9       655.2    
  41    457.7       457.6       457.4       457.1       456.6       456.1       455.4       454.7       453.8       452.9    
        451.8       450.7       449.4       448.1       446.7       445.3       443.7       442.1       440.4       438.7    
        436.9       435.1       433.3       431.4       429.5       427.6       425.6       423.7       421.7       419.6    
        417.5       415.4       413.1       410.7       408.2       405.6       403.4       405.6       408.4       411.3    
        414.1       416.7       419.2       421.4       423.5       425.6       427.6       429.7       431.8       434.2    
        436.7       439.2       441.6       443.9       446.2       448.4       450.7       453.3       456.7       461.5    
        469.2       482.3       497.2       511.8       525.4       538.0       549.5       560.1       569.8       578.8    
        587.0       594.7       601.7       608.3       614.3       619.9       625.0       629.7       633.9       637.8    
        641.3       644.4       647.1       649.5       651.5       653.2       654.6       655.6       656.3       656.6    
  42    457.1       456.9       456.7       456.4       455.9       455.4       454.7       454.0       453.1       452.1    
        451.0       449.9       448.6       447.3       445.9       444.4       442.8       441.1       439.4       437.7    
        435.9       434.1       432.2       430.3       428.4       426.5       424.5       422.6       420.6       418.6    
        416.6       414.5       412.3       409.9       407.5       404.7       401.1       404.8       407.6       410.3    
        412.9       415.3       417.3       419.0       420.5       421.9       423.4       424.9       426.6       428.5    
        430.9       433.2       435.3       437.1       438.7       440.0       441.1       442.1       443.7       446.0    
        450.9       470.3       489.9       507.4       522.9       536.6       548.8       559.9       570.0       579.2    
        587.7       595.5       602.7       609.3       615.4       621.1       626.2       630.9       635.3       639.2    
        642.7       645.8       648.6       651.0       653.0       654.7       656.1       657.1       657.8       658.1    
  43    456.3       456.2       455.9       455.6       455.1       454.6       453.9       453.1       452.2       451.2    
        450.1       449.0       447.7       446.3       444.8       443.3       441.7       440.0       438.3       436.5    
        434.7       432.9       431.0       429.1       427.1       425.2       423.3       421.3       419.4       417.5    
        415.5       413.5       411.3       409.1       406.8       404.7       403.3       404.7       406.6       409.2    
        411.8       414.0       415.5       416.5       417.4       418.1       418.9       419.8       421.0       422.3    
        425.1       427.4       429.0       430.3       431.2       431.7       431.4       430.2       429.8       427.8    
        417.8       457.7       484.5       505.0       521.9       536.4       549.1       560.5       570.8       580.2    
        588.8       596.7       604.0       610.7       616.8       622.5       627.7       632.5       636.8       640.7    
        644.2       647.4       650.2       652.6       654.6       656.3       657.7       658.7       659.4       659.7    
  44    455.4       455.3       455.1       454.7       454.3       453.7       453.0       452.2       451.3       450.3    
        449.2       447.9       446.6       445.2       443.7       442.2       440.5       438.8       437.0       435.2    
        433.4       431.5       429.5       427.6       425.7       423.7       421.8       419.9       418.0       416.1    
        414.2       412.3       410.3       408.1       405.8       403.6       402.5       404.0       404.7       408.0    
        411.0       413.0       414.0       414.0       414.1       414.1       414.1       414.1       415.1       414.2    
        419.6       421.8       423.0       423.7       424.0       423.9       422.5       417.2       417.3       417.3    
        417.7       458.0       485.2       506.0       523.1       537.7       550.5       562.0       572.4       581.8    
        590.4       598.4       605.7       612.4       618.5       624.2       629.4       634.2       638.5       642.5    
        646.0       649.2       651.9       654.3       656.4       658.1       659.5       660.5       661.2       661.5    
  45    454.5       454.4       454.1       453.8       453.3       452.7       452.0       451.2       450.2       449.2    
        448.1       446.8       445.5       444.0       442.5       440.9       439.2       437.4       435.6       433.7    
        431.8       429.9       427.9       426.0       424.0       422.1       420.1       418.2       416.4       414.6    
        412.9       411.1       409.2       407.0       404.6       401.1       405.0       407.7       410.0       412.8    
        415.5       417.6       419.1       420.1       420.8       421.3       421.8       422.1       422.2       421.0    
        417.2       417.2       417.2       417.2       417.1       417.1       417.2       417.4       430.5       438.8    
        449.3       471.2       492.2       510.6       526.6       540.6       553.1       564.4       574.6       584.0    
        592.6       600.4       607.7       614.4       620.5       626.2       631.4       636.2       640.5       644.4    
        647.9       651.1       653.9       656.3       658.3       660.0       661.4       662.4       663.1       663.4    
  46    453.5       453.3       453.1       452.7       452.2       451.6       450.9       450.1       449.1       448.0    
        446.9       445.6       444.2       442.7       441.1       439.5       437.7       435.9       434.0       432.1    
        430.1       428.1       426.1       424.1       422.1       420.2       418.2       416.3       414.5       412.8    
        411.3       409.9       408.3       406.0       404.3       405.4       408.5       411.6       414.6       417.5    
        420.3       422.6       424.6       426.2       427.4       428.5       429.4       430.1       430.5       430.2    
        429.4       429.5       430.1       430.9       432.0       433.5       435.9       439.9       448.4       457.8    
        469.4       485.1       501.6       517.3       531.7       544.8       556.8       567.6       577.6       586.8    
        595.2       603.0       610.1       616.7       622.8       628.5       633.6       638.3       642.6       646.5    
        650.1       653.2       656.0       658.4       660.4       662.1       663.5       664.5       665.1       665.5    
  47    452.4       452.2       452.0       451.6       451.1       450.5       449.8       448.9       447.9       446.8    
        445.6       444.3       442.8       441.3       439.6       437.9       436.1       434.2       432.3       430.3    
        428.3       426.2       424.1       422.1       420.0       418.0       416.0       414.1       412.2       410.6    
        409.3       408.7       407.8       404.1       401.1       407.4       411.8       415.6       419.0       422.2    
        425.2       427.9       430.3       432.3       434.1       435.7       437.1       438.2       439.2       439.9    
        440.4       441.3       442.6       444.2       446.3       449.0       452.6       457.8       465.3       474.4    
        485.2       498.0       511.6       525.1       538.0       550.1       561.3       571.6       581.2       590.1    
        598.3       605.9       612.9       619.4       625.4       631.0       636.1       640.8       645.0       648.9    
        652.4       655.5       658.2       660.6       662.6       664.3       665.7       666.7       667.3       667.7    
  48    451.2       451.1       450.8       450.4       449.9       449.3       448.5       447.6       446.6       445.5    
        444.2       442.8       441.4       439.8       438.1       436.3       434.4       432.4       430.4       428.3    
        426.2       424.1       421.9       419.8       417.7       415.7       413.6       411.6       409.6       407.8    
        406.5       407.7       409.8       401.2       406.1       411.0       415.5       419.6       423.4       427.0    
        430.3       433.3       436.0       438.5       440.8       442.8       444.7       446.4       448.0       449.4    
        450.9       452.5       454.5       456.8       459.7       463.2       467.6       473.3       480.4       488.9    
        498.8       509.8       521.6       533.4       544.9       556.0       566.4       576.1       585.3       593.8    
        601.8       609.1       616.0       622.4       628.3       633.7       638.8       643.4       647.6       651.4    
        654.8       657.9       660.6       663.0       665.0       666.7       668.0       669.0       669.7       670.0    
  49    449.9       449.8       449.6       449.2       448.6       448.0       447.2       446.3       445.2       444.1    
        442.8       441.3       439.8       438.1       436.4       434.5       432.5       430.5       428.4       426.2    
        424.0       421.8       419.5       417.3       415.2       413.1       411.0       408.9       406.7       404.2    
        401.1       405.4       407.5       407.4       410.7       415.0       419.5       423.8       427.9       431.7    
        435.4       438.7       441.9       444.8       447.5       450.0       452.3       454.5       456.7       458.8    
        460.9       463.2       465.8       468.8       472.2       476.3       481.2       487.0       494.0       502.0    
[...]
        735.7       742.3       748.8       755.4       761.8       768.3       774.6       780.9       787.1       793.3    
        799.3       805.3       811.2       817.0       822.8       828.4       833.9       839.3       844.7       849.9    
        855.0       860.0       864.9       869.7       874.4       878.9       883.4       887.7       891.9       896.0    
        899.9       903.7       907.5       911.0       914.5       917.8       921.0       924.1       927.1       929.9    
        932.6       935.1       937.6       939.9       942.0       944.0       945.9       947.7       949.3       950.8    
        952.2       953.4       954.5       955.4       956.2       956.9       957.5       957.9       958.1       958.3    
 146    584.8       585.4       586.7       588.6       591.0       594.0       597.4       601.3       605.5       610.1    
        614.9       620.0       625.4       630.9       636.6       642.4       648.4       654.5       660.7       667.0    
        673.4       679.8       686.3       692.8       699.3       705.9       712.4       719.0       725.6       732.1    
        738.6       745.1       751.6       758.0       764.4       770.7       777.0       783.2       789.3       795.4    
        801.4       807.3       813.2       818.9       824.6       830.2       835.6       841.0       846.3       851.5    
        856.6       861.5       866.4       871.1       875.8       880.3       884.7       889.0       893.2       897.2    
        901.2       905.0       908.7       912.3       915.7       919.0       922.2       925.3       928.2       931.0    
        933.7       936.2       938.6       940.9       943.1       945.1       947.0       948.7       950.4       951.8    
        953.2       954.4       955.5       956.4       957.3       957.9       958.5       958.9       959.1       959.3    
 147    593.4       594.0       595.1       596.9       599.1       601.8       605.0       608.6       612.5       616.8    
        621.4       626.2       631.3       636.6       642.0       647.6       653.4       659.3       665.3       671.4    
        677.6       683.8       690.1       696.5       702.9       709.3       715.7       722.2       728.6       735.0    
        741.4       747.8       754.2       760.5       766.8       773.1       779.2       785.4       791.4       797.4    
        803.4       809.2       815.0       820.7       826.3       831.8       837.3       842.6       847.9       853.0    
        858.0       863.0       867.8       872.5       877.1       881.6       886.0       890.3       894.4       898.5    
        902.4       906.2       909.8       913.4       916.8       920.1       923.3       926.3       929.3       932.0    
        934.7       937.2       939.7       941.9       944.1       946.1       948.0       949.7       951.3       952.8    
        954.1       955.4       956.4       957.4       958.2       958.9       959.4       959.8       960.1       960.2    
 148    601.2       601.8       602.8       604.4       606.5       609.0       612.0       615.3       619.0       623.0    
        627.4       632.0       636.8       641.8       647.1       652.5       658.1       663.8       669.6       675.5    
        681.5       687.6       693.8       700.0       706.2       712.5       718.8       725.1       731.4       737.8    
        744.1       750.4       756.6       762.9       769.1       775.2       781.4       787.4       793.4       799.3    
        805.2       811.0       816.7       822.4       827.9       833.4       838.8       844.1       849.3       854.4    
        859.4       864.3       869.1       873.8       878.4       882.8       887.2       891.4       895.6       899.6    
        903.5       907.3       910.9       914.4       917.8       921.1       924.3       927.3       930.2       933.0    
        935.7       938.2       940.6       942.9       945.0       947.0       948.9       950.6       952.2       953.7    
        955.0       956.2       957.3       958.3       959.1       959.7       960.3       960.7       961.0       961.1    
 149    608.3       608.8       609.8       611.3       613.2       615.5       618.3       621.5       625.0       628.8    
        632.9       637.3       641.9       646.7       651.8       657.0       662.4       667.9       673.6       679.3    
        685.2       691.1       697.1       703.2       709.3       715.5       721.7       727.9       734.1       740.3    
        746.5       752.7       758.9       765.1       771.2       777.3       783.3       789.3       795.2       801.1    
        806.9       812.7       818.3       823.9       829.4       834.9       840.2       845.5       850.6       855.7    
        860.7       865.5       870.3       875.0       879.5       884.0       888.3       892.5       896.6       900.6    
        904.5       908.3       911.9       915.4       918.8       922.1       925.2       928.3       931.2       933.9    
        936.6       939.1       941.5       943.7       945.9       947.9       949.7       951.5       953.1       954.5    
        955.9       957.1       958.1       959.1       959.9       960.6       961.1       961.5       961.8       961.9    
 150    614.7       615.2       616.1       617.5       619.3       621.5       624.1       627.1       630.4       634.0    
        637.9       642.1       646.6       651.2       656.1       661.2       666.4       671.7       677.2       682.8    
        688.5       694.4       700.2       706.2       712.2       718.2       724.3       730.4       736.5       742.7    
        748.8       754.9       761.0       767.1       773.1       779.1       785.1       791.0       796.9       802.7    
        808.5       814.2       819.8       825.4       830.8       836.2       841.5       846.8       851.9       856.9    
        861.9       866.7       871.4       876.1       880.6       885.0       889.3       893.5       897.6       901.6    
        905.4       909.2       912.8       916.3       919.7       923.0       926.1       929.1       932.0       934.8    
        937.4       939.9       942.3       944.5       946.6       948.6       950.5       952.2       953.8       955.3    
        956.6       957.8       958.9       959.8       960.6       961.3       961.8       962.2       962.5       962.6    
 151    620.4       620.9       621.7       623.0       624.7       626.8       629.3       632.1       635.3       638.8    
        642.5       646.6       650.8       655.3       660.1       664.9       670.0       675.2       680.6       686.1    
        691.6       697.3       703.1       708.9       714.8       720.7       726.7       732.7       738.8       744.8    
        750.8       756.9       762.9       768.9       774.9       780.9       786.8       792.6       798.5       804.2    
        809.9       815.6       821.2       826.7       832.1       837.5       842.7       847.9       853.0       858.0    
        862.9       867.7       872.4       877.1       881.6       886.0       890.3       894.4       898.5       902.5    
        906.3       910.0       913.6       917.1       920.5       923.8       926.9       929.9       932.8       935.5    
        938.1       940.6       943.0       945.3       947.4       949.4       951.2       952.9       954.5       956.0    
        957.3       958.5       959.6       960.5       961.3       962.0       962.5       962.9       963.2       963.3    
 152    625.5       625.9       626.8       628.0       629.6       631.6       634.0       636.7       639.7       643.0    
        646.7       650.5       654.7       659.0       663.6       668.4       673.3       678.4       683.6       689.0    
        694.4       700.0       705.7       711.4       717.2       723.0       728.9       734.8       740.8       746.7    
        752.7       758.7       764.6       770.6       776.5       782.4       788.3       794.1       799.9       805.6    
        811.2       816.9       822.4       827.9       833.3       838.6       843.8       849.0       854.0       859.0    
        863.9       868.7       873.4       878.0       882.4       886.8       891.1       895.3       899.3       903.3    
        907.1       910.8       914.4       917.9       921.2       924.5       927.6       930.6       933.4       936.2    
        938.8       941.3       943.7       945.9       948.0       950.0       951.8       953.6       955.2       956.6    
        957.9       959.1       960.2       961.1       961.9       962.6       963.1       963.5       963.8       963.9    
 153    630.0       630.4       631.2       632.3       633.9       635.8       638.1       640.7       643.6       646.8    
        650.3       654.1       658.1       662.3       666.8       671.4       676.2       681.2       686.3       691.6    
        696.9       702.4       707.9       713.6       719.3       725.1       730.9       736.7       742.6       748.5    
        754.4       760.3       766.2       772.1       778.0       783.8       789.6       795.4       801.1       806.8    
        812.4       818.0       823.5       828.9       834.3       839.6       844.8       849.9       854.9       859.9    
        864.8       869.5       874.2       878.8       883.2       887.6       891.9       896.0       900.0       904.0    
        907.8       911.5       915.1       918.5       921.9       925.1       928.2       931.2       934.1       936.8    
        939.4       941.9       944.3       946.5       948.6       950.6       952.4       954.1       955.7       957.2    
        958.5       959.7       960.7       961.7       962.5       963.1       963.7       964.1       964.3       964.5    
 154    633.9       634.2       635.0       636.1       637.6       639.5       641.7       644.2       647.0       650.1    
        653.5       657.2       661.1       665.2       669.5       674.1       678.8       683.7       688.7       693.8    
        699.1       704.5       710.0       715.5       721.2       726.8       732.6       738.4       744.2       750.0    
        755.9       761.7       767.6       773.4       779.2       785.0       790.8       796.5       802.2       807.8    
        813.4       819.0       824.4       829.8       835.2       840.4       845.6       850.7       855.8       860.7    
        865.5       870.3       874.9       879.5       883.9       888.3       892.5       896.7       900.7       904.6    
        908.4       912.1       915.7       919.1       922.5       925.7       928.8       931.8       934.6       937.3    
        939.9       942.4       944.8       947.0       949.1       951.1       952.9       954.6       956.2       957.7    
        959.0       960.2       961.2       962.2       962.9       963.6       964.1       964.5       964.8       964.9    
 155    637.2       637.5       638.3       639.4       640.8       642.6       644.7       647.1       649.9       652.9    
        656.2       659.8       663.6       667.7       671.9       676.4       681.0       685.8       690.7       695.8    
        701.0       706.3       711.7       717.2       722.8       728.4       734.1       739.8       745.5       751.3    
        757.1       762.9       768.7       774.5       780.3       786.1       791.8       797.5       803.1       808.8    
        814.3       819.8       825.3       830.6       836.0       841.2       846.4       851.4       856.4       861.4    
        866.2       870.9       875.5       880.1       884.5       888.9       893.1       897.2       901.2       905.1    
        908.9       912.6       916.2       919.6       922.9       926.2       929.2       932.2       935.1       937.8    
        940.4       942.9       945.2       947.4       949.5       951.5       953.3       955.0       956.6       958.1    
        959.4       960.6       961.6       962.6       963.4       964.0       964.6       964.9       965.2       965.3    
 156    639.9       640.2       641.0       642.0       643.4       645.2       647.2       649.6       652.3       655.3    
        658.5       662.0       665.8       669.7       673.9       678.3       682.8       687.5       692.4       697.4    
        702.6       707.8       713.2       718.6       724.1       729.7       735.3       741.0       746.7       752.4    
        758.2       763.9       769.7       775.5       781.2       786.9       792.6       798.3       803.9       809.5    
        815.1       820.5       826.0       831.3       836.6       841.8       847.0       852.0       857.0       861.9    
        866.7       871.4       876.1       880.6       885.0       889.3       893.6       897.7       901.7       905.6    
        909.4       913.0       916.6       920.0       923.4       926.6       929.6       932.6       935.5       938.2    
        940.8       943.2       945.6       947.8       949.9       951.9       953.7       955.4       957.0       958.4    
        959.7       960.9       962.0       962.9       963.7       964.4       964.9       965.3       965.6       965.7    
 157    642.1       642.4       643.1       644.1       645.5       647.2       649.3       651.6       654.2       657.1    
        660.3       663.8       667.5       671.4       675.5       679.8       684.3       689.0       693.8       698.7    
        703.8       709.0       714.3       719.7       725.2       730.7       736.3       741.9       747.6       753.3    
        759.0       764.8       770.5       776.2       781.9       787.6       793.3       799.0       804.6       810.1    
        815.6       821.1       826.5       831.9       837.1       842.3       847.5       852.5       857.5       862.4    
        867.2       871.9       876.5       881.0       885.4       889.7       893.9       898.0       902.0       905.9    
        909.7       913.4       916.9       920.4       923.7       926.9       930.0       932.9       935.8       938.5    
        941.1       943.5       945.9       948.1       950.2       952.1       954.0       955.7       957.3       958.7    
        960.0       961.2       962.3       963.2       964.0       964.6       965.2       965.6       965.8       966.0    
 158    643.7       644.0       644.7       645.7       647.1       648.8       650.8       653.1       655.7       658.5    
        661.7       665.1       668.7       672.6       676.7       680.9       685.4       690.0       694.8       699.7    
        704.8       709.9       715.2       720.5       726.0       731.5       737.0       742.7       748.3       754.0    
        759.7       765.4       771.1       776.8       782.5       788.2       793.8       799.5       805.0       810.6    
        816.1       821.5       826.9       832.3       837.5       842.7       847.8       852.9       857.8       862.7    
        867.5       872.2       876.8       881.3       885.7       890.0       894.2       898.3       902.3       906.2    
        910.0       913.6       917.2       920.6       923.9       927.1       930.2       933.2       936.0       938.7    
        941.3       943.8       946.1       948.3       950.4       952.4       954.2       955.9       957.5       958.9    
        960.2       961.4       962.5       963.4       964.2       964.8       965.4       965.8       966.0       966.2    
 159    644.8       645.1       645.8       646.8       648.1       649.8       651.8       654.1       656.6       659.5    
        662.6       666.0       669.6       673.4       677.5       681.7       686.1       690.7       695.5       700.4    
        705.4       710.5       715.8       721.1       726.5       732.0       737.5       743.1       748.8       754.4    
        760.1       765.8       771.5       777.2       782.9       788.5       794.2       799.8       805.4       810.9    
        816.4       821.8       827.2       832.5       837.8       843.0       848.1       853.1       858.1       862.9    
        867.7       872.4       877.0       881.5       885.9       890.2       894.4       898.5       902.5       906.4    
        910.1       913.8       917.4       920.8       924.1       927.3       930.4       933.3       936.2       938.9    
        941.5       943.9       946.3       948.5       950.5       952.5       954.3       956.0       957.6       959.1    
        960.4       961.6       962.6       963.5       964.3       965.0       965.5       965.9       966.2       966.3    
 160    645.3       645.6       646.3       647.3       648.7       650.3       652.3       654.5       657.1       659.9    
        663.1       666.4       670.0       673.8       677.9       682.1       686.5       691.1       695.8       700.7    
        705.7       710.8       716.1       721.4       726.8       732.3       737.8       743.4       749.0       754.6    
        760.3       766.0       771.7       777.4       783.0       788.7       794.3       799.9       805.5       811.1    
        816.5       822.0       827.3       832.7       837.9       843.1       848.2       853.2       858.2       863.0    
        867.8       872.5       877.1       881.6       886.0       890.3       894.5       898.6       902.6       906.5    
        910.2       913.9       917.4       920.9       924.2       927.4       930.4       933.4       936.2       938.9    
        941.5       944.0       946.3       948.5       950.6       952.6       954.4       956.1       957.7       959.1    
        960.4       961.6       962.7       963.6       964.4       965.0       965.6       966.0       966.2       966.4    

 HEAD WILL BE SAVED ON UNIT   51 AT END OF TIME STEP    1, STRESS PERIOD    1
1
  VOLUMETRIC BUDGET FOR ENTIRE MODEL AT END OF TIME STEP    1, STRESS PERIOD   1
  ------------------------------------------------------------------------------

     CUMULATIVE VOLUMES      L**3       RATES FOR THIS TIME STEP      L**3/T
     ------------------                 ------------------------

           IN:                                      IN:
           ---                                      ---
             STORAGE =           0.0000               STORAGE =           0.0000
       CONSTANT HEAD =           0.0000         CONSTANT HEAD =           0.0000
       RIVER LEAKAGE =       49365.0195         RIVER LEAKAGE =       49365.0195
            RECHARGE =      144000.0000              RECHARGE =      144000.0000

            TOTAL IN =      193365.0156              TOTAL IN =      193365.0156

          OUT:                                     OUT:
          ----                                     ----
             STORAGE =           0.0000               STORAGE =           0.0000
       CONSTANT HEAD =           0.0000         CONSTANT HEAD =           0.0000
       RIVER LEAKAGE =      193365.0156         RIVER LEAKAGE =      193365.0156
            RECHARGE =           0.0000              RECHARGE =           0.0000

           TOTAL OUT =      193365.0156             TOTAL OUT =      193365.0156

            IN - OUT =           0.0000              IN - OUT =           0.0000

 PERCENT DISCREPANCY =           0.00     PERCENT DISCREPANCY =           0.00






         TIME SUMMARY AT END OF TIME STEP    1 IN STRESS PERIOD    1
                    SECONDS     MINUTES      HOURS       DAYS        YEARS
                    -----------------------------------------------------------
   TIME STEP LENGTH  86400.      1440.0      24.000      1.0000     2.73785E-03
 STRESS PERIOD TIME  86400.      1440.0      24.000      1.0000     2.73785E-03
         TOTAL TIME  86400.      1440.0      24.000      1.0000     2.73785E-03
1

 Run end date and time (yyyy/mm/dd hh:mm:ss): 2020/04/06 17:32:18
 Elapsed run time:  0.101 Seconds

