                                  MODFLOW-2005     
      U.S. GEOLOGICAL SURVEY MODULAR FINITE-DIFFERENCE GROUND-WATER FLOW MODEL
                            VERSION 1.12.00 2/3/2017

 LIST FILE: my_model.list
                         UNIT    2

 OPENING my_model.dis
 FILE TYPE:DIS   UNIT   11   STATUS:OLD    
 FORMAT:FORMATTED              ACCESS:SEQUENTIAL          

 OPENING my_model.bas
 FILE TYPE:BAS6   UNIT   13   STATUS:OLD    
 FORMAT:FORMATTED              ACCESS:SEQUENTIAL          

 OPENING my_model.lpf
 FILE TYPE:LPF   UNIT   15   STATUS:OLD    
 FORMAT:FORMATTED              ACCESS:SEQUENTIAL          

 OPENING my_model.rch
 FILE TYPE:RCH   UNIT   19   STATUS:OLD    
 FORMAT:FORMATTED              ACCESS:SEQUENTIAL          

 OPENING my_model.riv
 FILE TYPE:RIV   UNIT   18   STATUS:OLD    
 FORMAT:FORMATTED              ACCESS:SEQUENTIAL          

 OPENING my_model.oc
 FILE TYPE:OC   UNIT   14   STATUS:OLD    
 FORMAT:FORMATTED              ACCESS:SEQUENTIAL          

 OPENING my_model.pcg
 FILE TYPE:PCG   UNIT   27   STATUS:OLD    
 FORMAT:FORMATTED              ACCESS:SEQUENTIAL          

 OPENING my_model.cbc
 FILE TYPE:DATA(BINARY)   UNIT    1   STATUS:REPLACE
 FORMAT:BINARY                 ACCESS:SEQUENTIAL          

 OPENING my_model.hds
 FILE TYPE:DATA(BINARY)   UNIT   51   STATUS:REPLACE
 FORMAT:BINARY                 ACCESS:SEQUENTIAL          

 BAS -- BASIC PACKAGE, VERSION 7, 5/2/2005 INPUT READ FROM UNIT   13
 
 MODFLOW was compiled using mixed precision
 Precision of REAL variables:           6
 Precision of DOUBLE PRECISION variables:          15

 DISCRETIZATION INPUT DATA READ FROM UNIT   11
 # DIS package for  MODFLOW-2005, generated by Flopy.
    1 LAYERS       160 ROWS        90 COLUMNS
    1 STRESS PERIOD(S) IN SIMULATION
 MODEL TIME UNIT IS DAYS
 MODEL LENGTH UNIT IS FEET
  Confining bed flag for each layer:
   0

                     DELR =   1000.00    

                     DELC =   1000.00    

 TOP ELEVATION OF LAYER 1 =   0.00000    

   MODEL LAYER BOTTOM EL. =  -50.0000     FOR LAYER   1


 STRESS PERIOD     LENGTH       TIME STEPS     MULTIPLIER FOR DELT    SS FLAG
 ----------------------------------------------------------------------------
        1         1.000000          1                    1.000         SS

 STEADY-STATE SIMULATION



 
 # BAS6 package for  MODFLOW-2005, generated by Flopy.                           
 THE FREE FORMAT OPTION HAS BEEN SELECTED



                     BOUNDARY ARRAY FOR LAYER   1
 READING ON UNIT   13 WITH FORMAT: (90I10)             

 AQUIFER HEAD WILL BE SET TO  -999.99     AT ALL NO-FLOW NODES (IBOUND=0).



                       INITIAL HEAD FOR LAYER   1
 READING ON UNIT   13 WITH FORMAT: (90E15.6)           
 # OC package for  MODFLOW-2005, generated by Flopy.

 OUTPUT CONTROL IS SPECIFIED ONLY AT TIME STEPS FOR WHICH OUTPUT IS DESIRED
 COMPACT CELL-BY-CELL BUDGET FILES WILL BE WRITTEN
 AUXILIARY DATA WILL BE SAVED IN CELL-BY-CELL BUDGET FILES
 HEAD PRINT FORMAT CODE IS   0    DRAWDOWN PRINT FORMAT CODE IS   0
 HEADS WILL BE SAVED ON UNIT   51    DRAWDOWNS WILL BE SAVED ON UNIT    0

 LPF -- LAYER-PROPERTY FLOW PACKAGE, VERSION 7, 5/2/2005
         INPUT READ FROM UNIT   15
 # LPF package for  MODFLOW-2005, generated by Flopy.
 CELL-BY-CELL FLOWS WILL BE SAVED ON UNIT    1
 HEAD AT CELLS THAT CONVERT TO DRY= -1.00000E+30
 No named parameters

   LAYER FLAGS:
 LAYER       LAYTYP        LAYAVG         CHANI        LAYVKA        LAYWET
 ---------------------------------------------------------------------------
    1             1             0     1.000E+00             0             0

   INTERPRETATION OF LAYER FLAGS:
                        INTERBLOCK     HORIZONTAL    DATA IN
         LAYER TYPE   TRANSMISSIVITY   ANISOTROPY   ARRAY VKA   WETTABILITY
 LAYER      (LAYTYP)      (LAYAVG)       (CHANI)      (LAYVKA)      (LAYWET)
 ---------------------------------------------------------------------------
    1   CONVERTIBLE      HARMONIC     1.000E+00    VERTICAL K  NON-WETTABLE

 WETTING CAPABILITY IS NOT ACTIVE IN ANY LAYER



              HYD. COND. ALONG ROWS FOR LAYER   1
 READING ON UNIT   15 WITH FORMAT: (90E15.6)           



                VERTICAL HYD. COND. FOR LAYER   1
 READING ON UNIT   15 WITH FORMAT: (90E15.6)           

 RIV -- RIVER PACKAGE, VERSION 7, 5/2/2005 INPUT READ FROM UNIT   18
 # RIV package for  MODFLOW-2005, generated by Flopy.
 No named parameters
 MAXIMUM OF    213 ACTIVE RIVER REACHES AT ONE TIME


     0 River parameters

 RCH -- RECHARGE PACKAGE, VERSION 7, 5/2/2005 INPUT READ FROM UNIT   19
 # RCH package for  MODFLOW-2005, generated by Flopy.
 No named parameters
 OPTION 3 -- RECHARGE TO HIGHEST ACTIVE NODE IN EACH VERTICAL COLUMN


     0 Recharge parameters

 PCG -- CONJUGATE-GRADIENT SOLUTION PACKAGE, VERSION 7, 5/2/2005
 # PCG package for  MODFLOW-2005, generated by Flopy.
 MAXIMUM OF     50 CALLS OF SOLUTION ROUTINE
 MAXIMUM OF     30 INTERNAL ITERATIONS PER CALL TO SOLUTION ROUTINE
 MATRIX PRECONDITIONING TYPE :    1



                                    SOLUTION BY THE CONJUGATE-GRADIENT METHOD
                                   -------------------------------------------
                    MAXIMUM NUMBER OF CALLS TO PCG ROUTINE =       50
                        MAXIMUM ITERATIONS PER CALL TO PCG =       30
                               MATRIX PRECONDITIONING TYPE =        1
        RELAXATION FACTOR (ONLY USED WITH PRECOND. TYPE 1) =    0.10000E+01
 PARAMETER OF POLYNOMIAL PRECOND. = 2 (2) OR IS CALCULATED :        0
                         HEAD CHANGE CRITERION FOR CLOSURE =    0.10000E-04
                     RESIDUAL CHANGE CRITERION FOR CLOSURE =    0.10000E-04
            PCG HEAD AND RESIDUAL CHANGE PRINTOUT INTERVAL =      999
     PRINTING FROM SOLVER IS LIMITED(1) OR SUPPRESSED (>1) =        3
                            STEADY-STATE DAMPING PARAMETER =    0.10000E+01
                               TRANSIENT DAMPING PARAMETER =    0.10000E+01
1
                            STRESS PERIOD NO.    1, LENGTH =   1.000000    
                            -----------------------------------------------

                              NUMBER OF TIME STEPS =     1

                               MULTIPLIER FOR DELT =     1.000

                            INITIAL TIME STEP SIZE =   1.000000    

 REACH NO.  LAYER   ROW   COL     STAGE      CONDUCTANCE     BOTTOM EL.         
 -------------------------------------------------------------------------------
      1      1     16     19       417.0           5000.           414.0    
      2      1     17     22       417.0           5000.           414.0    
      3      1     19     24       417.0           5000.           414.0    
      4      1     20     26       417.0           5000.           414.0    
      5      1     22     28       404.0           5000.           401.0    
      6      1     23     30       404.0           5000.           401.0    
      7      1     25     33       404.0           5000.           401.0    
      8      1     26     35       404.0           5000.           401.0    
      9      1     27     37       401.0           5000.           398.0    
     10      1     29     39       401.0           5000.           398.0    
     11      1     32     39       401.0           5000.           398.0    
     12      1     35     38       401.0           5000.           398.0    
     13      1     37     38       401.0           5000.           398.0    
     14      1     40     37       401.0           5000.           398.0    
     15      1     42     37       401.0           5000.           398.0    
     16      1     45     36       401.0           5000.           398.0    
     17      1     47     35       401.0           5000.           398.0    
     18      1     48     33       410.0           5000.           407.0    
     19      1     50     30       401.0           5000.           398.0    
     20      1     51     29       401.0           5000.           398.0    
     21      1     52     27       401.0           5000.           398.0    
     22      1     54     24       401.0           5000.           398.0    
     23      1     56     22       401.0           5000.           398.0    
     24      1     57     21       401.0           5000.           398.0    
     25      1     60     19       401.0           5000.           398.0    
     26      1     62     19       401.0           5000.           398.0    
     27      1     65     17       401.0           5000.           398.0    
     28      1     67     14       401.0           5000.           398.0    
     29      1     70     11       401.0           5000.           398.0    
     30      1     73      9       398.0           5000.           395.0    
     31      1     77      8       397.0           5000.           394.0    
     32      1     81      9       393.0           5000.           390.0    
     33      1     84     10       397.0           5000.           394.0    
     34      1     86     13       391.0           5000.           388.0    
     35      1     90     15       391.0           5000.           388.0    
     36      1     92     16       391.0           5000.           388.0    
     37      1     95     17       391.0           5000.           388.0    
     38      1     97     18       391.0           5000.           388.0    
     39      1    100     18       391.0           5000.           388.0    
     40      1    103     18       388.0           5000.           385.0    
     41      1    105     18       388.0           5000.           385.0    
     42      1    108     18       388.0           5000.           385.0    
     43      1    111     17       388.0           5000.           385.0    
     44      1    113     17       388.0           5000.           385.0    
     45      1    116     16       388.0           5000.           385.0    
     46      1    118     15       388.0           5000.           385.0    
     47      1    121     13       388.0           5000.           385.0    
     48      1    123     12       388.0           5000.           385.0    
     49      1    124     10       388.0           5000.           385.0    
     50      1    126      7       388.0           5000.           385.0    
     51      1    128      6       387.0           5000.           384.0    
     52      1    130      4       384.0           5000.           381.0    
     53      1    132      3       384.0           5000.           381.0    
     54      1    135      2       384.0           5000.           381.0    
     55      1     15     17       417.0           5000.           414.0    
     56      1     13     15       417.0           5000.           414.0    
     57      1     12     13       417.0           5000.           414.0    
     58      1     11     12       417.0           5000.           414.0    
     59      1     10     10       417.0           5000.           414.0    
     60      1     64     18       411.0           5000.           408.0    
     61      1     66     15       401.0           5000.           398.0    
     62      1     69     12       401.0           5000.           398.0    
     63      1     71      9       401.0           5000.           398.0    
     64      1     75      9       398.0           5000.           395.0    
     65      1     79      9       397.0           5000.           394.0    
     66      1     82     10       397.0           5000.           394.0    
     67      1     85     12       391.0           5000.           388.0    
     68      1     88     14       391.0           5000.           388.0    
     69      1     61     19       401.0           5000.           398.0    
     70      1     64     17       401.0           5000.           398.0    
     71      1     66     16       401.0           5000.           398.0    
     72      1     67     15       401.0           5000.           398.0    
     73      1     68     13       401.0           5000.           398.0    
     74      1     69     11       401.0           5000.           398.0    
     75      1     71     10       401.0           5000.           398.0    
     76      1     72      9       401.0           5000.           398.0    
     77      1     74      9       398.0           5000.           395.0    
     78      1     76      8       391.0           5000.           388.0    
     79      1     78      8       397.0           5000.           394.0    
     80      1     80      9       393.0           5000.           390.0    
     81      1     81      9       393.0           5000.           390.0    
     82      1     83     10       397.0           5000.           394.0    
     83      1     84     11       397.0           5000.           394.0    
     84      1     86     12       391.0           5000.           388.0    
     85      1     87     13       391.0           5000.           388.0    
     86      1     89     14       391.0           5000.           388.0    
     87      1     58     20       401.0           5000.           398.0    
     88      1     56     21       401.0           5000.           398.0    
     89      1     55     23       401.0           5000.           398.0    
     90      1     53     25       401.0           5000.           398.0    
     91      1     52     28       401.0           5000.           398.0    
     92      1     51     29       401.0           5000.           398.0    
     93      1     49     31       401.0           5000.           398.0    
     94      1     48     34       401.0           5000.           398.0    
     95      1     44     37       401.0           5000.           398.0    
     96      1     44     37       404.0           5000.           401.0    
     97      1     44     38       404.0           5000.           401.0    
     98      1     44     38       404.0           5000.           401.0    
     99      1     44     39       404.0           5000.           401.0    
    100      1     44     39       405.0           5000.           402.0    
    101      1     44     39       405.0           5000.           402.0    
    102      1     44     40       405.0           5000.           402.0    
    103      1     44     40       411.0           5000.           408.0    
    104      1     44     41       411.0           5000.           408.0    
    105      1     44     42       411.0           5000.           408.0    
    106      1     44     42       414.0           5000.           411.0    
    107      1     44     42       414.0           5000.           411.0    
    108      1     44     43       414.0           5000.           411.0    
    109      1     44     43       414.0           5000.           411.0    
    110      1     44     44       414.0           5000.           411.0    
    111      1     44     44       414.0           5000.           411.0    
    112      1     44     45       414.0           5000.           411.0    
    113      1     44     46       414.0           5000.           411.0    
    114      1     44     46       414.0           5000.           411.0    
    115      1     44     47       414.0           5000.           411.0    
    116      1     44     47       414.0           5000.           411.0    
    117      1     44     48       414.0           5000.           411.0    
    118      1     44     48       414.0           5000.           411.0    
    119      1     44     49       416.0           5000.           413.0    
    120      1     44     49       414.0           5000.           411.0    
    121      1     44     50       414.0           5000.           411.0    
    122      1     45     51       417.0           5000.           414.0    
    123      1     45     52       417.0           5000.           414.0    
    124      1     45     53       417.0           5000.           414.0    
    125      1     45     54       417.0           5000.           414.0    
    126      1     45     55       417.0           5000.           414.0    
    127      1     45     55       417.0           5000.           414.0    
    128      1     45     56       417.0           5000.           414.0    
    129      1     45     56       417.0           5000.           414.0    
    130      1     45     57       417.0           5000.           414.0    
    131      1     45     58       417.0           5000.           414.0    
    132      1     44     58       417.0           5000.           414.0    
    133      1     44     59       417.0           5000.           414.0    
    134      1     44     60       417.0           5000.           414.0    
    135      1     44     61       417.0           5000.           414.0    
    136      1     43     61       417.0           5000.           414.0    
    137      1     16     19       417.0           5000.           414.0    
    138      1     17     22       417.0           5000.           414.0    
    139      1     19     24       417.0           5000.           414.0    
    140      1     20     26       417.0           5000.           414.0    
    141      1     22     28       404.0           5000.           401.0    
    142      1     23     30       404.0           5000.           401.0    
    143      1     25     33       404.0           5000.           401.0    
    144      1     26     35       404.0           5000.           401.0    
    145      1     27     37       401.0           5000.           398.0    
    146      1     29     39       401.0           5000.           398.0    
    147      1     32     39       401.0           5000.           398.0    
    148      1     35     38       401.0           5000.           398.0    
    149      1     37     38       401.0           5000.           398.0    
    150      1     40     37       401.0           5000.           398.0    
    151      1     42     37       401.0           5000.           398.0    
    152      1     45     36       401.0           5000.           398.0    
    153      1     47     35       401.0           5000.           398.0    
    154      1     50     34       410.0           5000.           407.0    
    155      1     52     33       401.0           5000.           398.0    
    156      1     55     32       401.0           5000.           398.0    
    157      1     57     31       401.0           5000.           398.0    
    158      1     59     30       401.0           5000.           398.0    
    159      1     62     28       401.0           5000.           398.0    
    160      1     64     27       401.0           5000.           398.0    
    161      1     66     26       401.0           5000.           398.0    
    162      1     69     24       401.0           5000.           398.0    
    163      1     71     23       401.0           5000.           398.0    
    164      1     73     22       401.0           5000.           398.0    
    165      1     76     21       401.0           5000.           398.0    
    166      1     78     20       398.0           5000.           395.0    
    167      1     80     18       397.0           5000.           394.0    
    168      1     82     17       393.0           5000.           390.0    
    169      1     85     15       397.0           5000.           394.0    
    170      1     87     15       391.0           5000.           388.0    
    171      1     90     15       391.0           5000.           388.0    
    172      1     92     16       391.0           5000.           388.0    
    173      1     95     17       391.0           5000.           388.0    
    174      1     97     18       391.0           5000.           388.0    
    175      1    100     18       391.0           5000.           388.0    
    176      1    103     18       388.0           5000.           385.0    
    177      1    105     18       388.0           5000.           385.0    
    178      1    108     18       388.0           5000.           385.0    
    179      1    111     17       388.0           5000.           385.0    
    180      1    113     17       388.0           5000.           385.0    
    181      1    116     16       388.0           5000.           385.0    
    182      1    118     15       388.0           5000.           385.0    
    183      1    121     13       388.0           5000.           385.0    
    184      1    123     12       388.0           5000.           385.0    
    185      1    124     10       388.0           5000.           385.0    
    186      1    126      7       388.0           5000.           385.0    
    187      1    128      6       387.0           5000.           384.0    
    188      1    130      4       384.0           5000.           381.0    
    189      1    132      3       384.0           5000.           381.0    
    190      1    135      2       384.0           5000.           381.0    
    191      1     24     32       404.0           5000.           401.0    
    192      1     23     32       405.0           5000.           402.0    
    193      1     22     33       405.0           5000.           402.0    
    194      1     22     33       405.0           5000.           402.0    
    195      1     21     33       405.0           5000.           402.0    
    196      1     20     33       405.0           5000.           402.0    
    197      1     20     33       407.0           5000.           404.0    
    198      1     19     33       407.0           5000.           404.0    
    199      1     18     33       407.0           5000.           404.0    
    200      1     18     33       407.0           5000.           404.0    
    201      1     17     34       407.0           5000.           404.0    
    202      1     16     34       407.0           5000.           404.0    
    203      1     16     34       407.0           5000.           404.0    
    204      1     15     35       407.0           5000.           404.0    
    205      1     14     35       407.0           5000.           404.0    
    206      1     14     35       407.0           5000.           404.0    
    207      1     13     36       407.0           5000.           404.0    
    208      1     13     36       408.0           5000.           405.0    
    209      1     12     36       408.0           5000.           405.0    
    210      1     13     37       408.0           5000.           405.0    
    211      1     13     38       408.0           5000.           405.0    
    212      1     14     39       408.0           5000.           405.0    
    213      1     14     39       408.0           5000.           405.0    

    213 RIVER REACHES

                 RECHARGE =  1.000000E-06
 
 SOLVING FOR HEAD 

 OUTPUT CONTROL FOR STRESS PERIOD    1   TIME STEP    1
    PRINT HEAD FOR ALL LAYERS
    PRINT BUDGET
    SAVE HEAD FOR ALL LAYERS
    SAVE BUDGET
 UBDSV2 SAVING "   CONSTANT HEAD" ON UNIT   1 AT TIME STEP  1, STRESS PERIOD   1
 UBDSV1 SAVING "FLOW RIGHT FACE " ON UNIT   1 AT TIME STEP  1, STRESS PERIOD   1
 UBDSV1 SAVING "FLOW FRONT FACE " ON UNIT   1 AT TIME STEP  1, STRESS PERIOD   1
1
              HEAD IN LAYER   1 AT END OF TIME STEP   1 IN STRESS PERIOD    1
  ---------------------------------------------------------------------------

            1           2           3           4           5           6           7           8           9          10
           11          12          13          14          15          16          17          18          19          20
           21          22          23          24          25          26          27          28          29          30
           31          32          33          34          35          36          37          38          39          40
           41          42          43          44          45          46          47          48          49          50
           51          52          53          54          55          56          57          58          59          60
           61          62          63          64          65          66          67          68          69          70
           71          72          73          74          75          76          77          78          79          80
           81          82          83          84          85          86          87          88          89          90
 ........................................................................................................................
   1    418.4       418.4       418.3       418.3       418.3       418.2       418.2       418.1       418.1       418.0    
        417.9       417.8       417.7       417.6       417.5       417.4       417.3       417.2       417.0       416.8    
        416.7       416.5       416.3       416.1       415.9       415.8       415.6       415.4       415.3       415.1    
        415.0       415.0       414.9       414.9       415.0       415.1       415.2       415.4       415.7       416.0    
        416.3       416.7       417.1       417.6       418.0       418.5       419.0       419.5       420.1       420.6    
        421.1       421.7       422.2       422.8       423.3       423.8       424.3       424.8       425.3       425.8    
        426.3       426.8       427.3       427.7       428.1       428.6       429.0       429.4       429.7       430.1    
        430.4       430.8       431.1       431.4       431.7       432.0       432.2       432.4       432.7       432.9    
        433.0       433.2       433.3       433.5       433.6       433.7       433.8       433.8       433.8       433.9    
   2    418.4       418.4       418.3       418.3       418.3       418.2       418.2       418.1       418.1       418.0    
        417.9       417.8       417.7       417.6       417.5       417.4       417.3       417.1       417.0       416.8    
        416.7       416.5       416.3       416.1       415.9       415.7       415.6       415.4       415.2       415.1    
        415.0       414.9       414.9       414.9       414.9       415.0       415.2       415.4       415.6       415.9    
        416.3       416.6       417.1       417.5       418.0       418.5       419.0       419.5       420.0       420.6    
        421.1       421.7       422.2       422.7       423.3       423.8       424.3       424.8       425.3       425.8    
        426.3       426.8       427.2       427.7       428.1       428.5       429.0       429.4       429.7       430.1    
        430.4       430.8       431.1       431.4       431.7       432.0       432.2       432.4       432.7       432.9    
        433.0       433.2       433.3       433.5       433.6       433.7       433.7       433.8       433.8       433.9    
   3    418.3       418.3       418.3       418.3       418.3       418.2       418.2       418.1       418.0       418.0    
        417.9       417.8       417.7       417.6       417.5       417.4       417.3       417.1       417.0       416.8    
        416.6       416.5       416.3       416.1       415.9       415.7       415.5       415.3       415.1       415.0    
        414.9       414.8       414.7       414.7       414.8       414.9       415.0       415.2       415.5       415.8    
        416.1       416.5       417.0       417.4       417.9       418.4       418.9       419.5       420.0       420.5    
        421.1       421.6       422.2       422.7       423.2       423.8       424.3       424.8       425.3       425.8    
        426.3       426.8       427.2       427.7       428.1       428.5       428.9       429.3       429.7       430.1    
        430.4       430.8       431.1       431.4       431.7       431.9       432.2       432.4       432.6       432.8    
        433.0       433.2       433.3       433.5       433.6       433.7       433.7       433.8       433.8       433.9    
   4    418.3       418.3       418.3       418.3       418.2       418.2       418.1       418.0       418.0       417.9    
        417.8       417.8       417.7       417.6       417.5       417.4       417.2       417.1       416.9       416.8    
        416.6       416.4       416.2       416.0       415.8       415.6       415.4       415.2       415.0       414.9    
        414.7       414.6       414.5       414.5       414.6       414.6       414.8       415.0       415.3       415.6    
        416.0       416.4       416.8       417.3       417.8       418.3       418.8       419.4       419.9       420.5    
        421.0       421.6       422.1       422.7       423.2       423.7       424.3       424.8       425.3       425.8    
        426.3       426.7       427.2       427.7       428.1       428.5       428.9       429.3       429.7       430.1    
        430.4       430.8       431.1       431.4       431.7       431.9       432.2       432.4       432.6       432.8    
        433.0       433.2       433.3       433.5       433.6       433.7       433.7       433.8       433.8       433.9    
   5    418.3       418.3       418.2       418.2       418.2       418.1       418.1       418.0       417.9       417.8    
        417.8       417.7       417.6       417.5       417.4       417.3       417.2       417.1       416.9       416.7    
        416.6       416.4       416.2       416.0       415.7       415.5       415.3       415.1       414.9       414.7    
        414.5       414.4       414.3       414.2       414.3       414.3       414.5       414.7       415.0       415.3    
        415.7       416.2       416.6       417.1       417.6       418.2       418.7       419.3       419.8       420.4    
        420.9       421.5       422.0       422.6       423.1       423.7       424.2       424.7       425.2       425.7    
        426.2       426.7       427.2       427.6       428.1       428.5       428.9       429.3       429.7       430.1    
        430.4       430.7       431.1       431.4       431.7       431.9       432.2       432.4       432.6       432.8    
        433.0       433.2       433.3       433.5       433.6       433.7       433.7       433.8       433.8       433.8    
   6    418.2       418.2       418.2       418.2       418.1       418.1       418.0       417.9       417.8       417.8    
        417.7       417.6       417.6       417.5       417.4       417.3       417.2       417.0       416.9       416.7    
        416.5       416.3       416.1       415.9       415.6       415.4       415.1       414.9       414.7       414.4    
        414.3       414.1       414.0       413.9       413.9       414.0       414.1       414.3       414.6       415.0    
        415.4       415.9       416.4       416.9       417.4       418.0       418.6       419.1       419.7       420.3    
        420.8       421.4       422.0       422.5       423.1       423.6       424.1       424.7       425.2       425.7    
        426.2       426.7       427.1       427.6       428.0       428.5       428.9       429.3       429.7       430.0    
        430.4       430.7       431.0       431.3       431.6       431.9       432.2       432.4       432.6       432.8    
        433.0       433.2       433.3       433.4       433.6       433.7       433.7       433.8       433.8       433.8    
   7    418.2       418.2       418.1       418.1       418.0       418.0       417.9       417.8       417.8       417.7    
        417.6       417.5       417.5       417.4       417.3       417.2       417.1       417.0       416.8       416.7    
        416.5       416.3       416.0       415.8       415.5       415.3       415.0       414.7       414.4       414.2    
        413.9       413.7       413.6       413.5       413.4       413.5       413.6       413.9       414.2       414.6    
        415.1       415.6       416.1       416.6       417.2       417.8       418.4       419.0       419.5       420.1    
        420.7       421.3       421.9       422.4       423.0       423.5       424.1       424.6       425.1       425.6    
        426.1       426.6       427.1       427.6       428.0       428.4       428.8       429.2       429.6       430.0    
        430.4       430.7       431.0       431.3       431.6       431.9       432.1       432.4       432.6       432.8    
        433.0       433.2       433.3       433.4       433.5       433.6       433.7       433.8       433.8       433.8    
   8    418.1       418.1       418.1       418.0       418.0       417.9       417.8       417.7       417.6       417.5    
        417.5       417.4       417.4       417.3       417.3       417.2       417.1       416.9       416.8       416.6    
        416.4       416.2       415.9       415.7       415.4       415.1       414.8       414.5       414.2       413.9    
        413.6       413.3       413.1       412.9       412.9       412.9       413.0       413.3       413.7       414.1    
        414.6       415.2       415.8       416.3       416.9       417.6       418.2       418.8       419.4       420.0    
        420.6       421.2       421.8       422.3       422.9       423.5       424.0       424.5       425.1       425.6    
        426.1       426.6       427.0       427.5       428.0       428.4       428.8       429.2       429.6       430.0    
        430.3       430.7       431.0       431.3       431.6       431.9       432.1       432.4       432.6       432.8    
        433.0       433.1       433.3       433.4       433.5       433.6       433.7       433.8       433.8       433.8    
   9    418.0       418.0       418.0       417.9       417.9       417.8       417.7       417.6       417.5       417.3    
        417.3       417.3       417.3       417.2       417.2       417.1       417.0       416.9       416.7       416.6    
        416.4       416.1       415.9       415.6       415.3       414.9       414.6       414.2       413.9       413.5    
        413.2       412.8       412.5       412.3       412.2       412.1       412.3       412.6       413.0       413.5    
        414.1       414.7       415.4       416.0       416.7       417.3       417.9       418.6       419.2       419.8    
        420.4       421.0       421.6       422.2       422.8       423.4       423.9       424.5       425.0       425.5    
        426.0       426.5       427.0       427.4       427.9       428.3       428.8       429.2       429.6       429.9    
        430.3       430.6       431.0       431.3       431.6       431.8       432.1       432.3       432.6       432.8    
        433.0       433.1       433.3       433.4       433.5       433.6       433.7       433.8       433.8       433.8    
  10    417.9       417.9       417.9       417.9       417.8       417.7       417.6       417.5       417.3       417.0    
        417.2       417.2       417.2       417.2       417.1       417.1       417.0       416.9       416.7       416.5    
        416.3       416.1       415.8       415.5       415.1       414.8       414.4       414.0       413.6       413.1    
        412.7       412.3       411.9       411.6       411.3       411.2       411.4       411.8       412.3       412.9    
        413.6       414.3       415.0       415.7       416.4       417.0       417.7       418.4       419.0       419.7    
        420.3       420.9       421.5       422.1       422.7       423.3       423.8       424.4       424.9       425.4    
        425.9       426.4       426.9       427.4       427.8       428.3       428.7       429.1       429.5       429.9    
        430.3       430.6       430.9       431.2       431.5       431.8       432.1       432.3       432.5       432.8    
        432.9       433.1       433.3       433.4       433.5       433.6       433.7       433.7       433.8       433.8    
  11    417.8       417.8       417.8       417.8       417.7       417.6       417.6       417.5       417.3       417.2    
        417.1       417.0       417.1       417.1       417.1       417.0       416.9       416.8       416.7       416.5    
        416.3       416.0       415.7       415.4       415.0       414.6       414.2       413.7       413.2       412.7    
        412.2       411.7       411.2       410.7       410.3       409.9       410.3       410.8       411.4       412.2    
        413.0       413.8       414.6       415.3       416.1       416.8       417.5       418.1       418.8       419.5    
        420.1       420.7       421.4       422.0       422.6       423.1       423.7       424.3       424.8       425.3    
        425.9       426.4       426.8       427.3       427.8       428.2       428.7       429.1       429.5       429.9    
        430.2       430.6       430.9       431.2       431.5       431.8       432.1       432.3       432.5       432.7    
        432.9       433.1       433.2       433.4       433.5       433.6       433.7       433.7       433.8       433.8    
  12    417.7       417.7       417.7       417.7       417.6       417.6       417.5       417.4       417.3       417.2    
        417.1       417.0       417.0       417.0       417.0       417.0       416.9       416.8       416.7       416.5    
        416.3       416.0       415.7       415.3       414.9       414.4       414.0       413.4       412.9       412.3    
        411.7       411.1       410.5       409.8       409.1       408.0       409.0       409.5       410.4       411.4    
        412.4       413.3       414.2       415.0       415.7       416.5       417.2       417.9       418.6       419.3    
        419.9       420.6       421.2       421.8       422.4       423.0       423.6       424.2       424.7       425.2    
        425.8       426.3       426.8       427.3       427.7       428.2       428.6       429.0       429.4       429.8    
        430.2       430.5       430.9       431.2       431.5       431.8       432.0       432.3       432.5       432.7    
        432.9       433.1       433.2       433.4       433.5       433.6       433.7       433.7       433.7       433.8    
  13    417.6       417.6       417.6       417.6       417.5       417.5       417.4       417.3       417.2       417.2    
        417.1       417.0       417.0       417.0       417.0       417.0       416.9       416.8       416.7       416.5    
        416.3       416.0       415.7       415.3       414.8       414.3       413.8       413.2       412.5       411.9    
        411.2       410.5       409.8       409.0       408.2       407.5       408.0       408.0       409.3       410.7    
        411.8       412.9       413.8       414.6       415.4       416.2       417.0       417.7       418.4       419.1    
        419.7       420.4       421.0       421.7       422.3       422.9       423.5       424.0       424.6       425.1    
        425.7       426.2       426.7       427.2       427.6       428.1       428.5       429.0       429.4       429.8    
        430.1       430.5       430.8       431.1       431.4       431.7       432.0       432.2       432.5       432.7    
        432.9       433.1       433.2       433.3       433.5       433.6       433.6       433.7       433.7       433.8    
  14    417.5       417.5       417.5       417.5       417.4       417.4       417.3       417.2       417.2       417.1    
        417.0       417.0       417.0       416.9       416.9       416.9       416.9       416.8       416.7       416.6    
        416.3       416.1       415.7       415.3       414.8       414.2       413.6       412.9       412.2       411.5    
        410.7       410.0       409.2       408.2       407.0       407.5       407.9       408.1       408.0       410.1    
        411.4       412.5       413.4       414.3       415.2       416.0       416.7       417.5       418.2       418.9    
        419.6       420.2       420.9       421.5       422.1       422.8       423.3       423.9       424.5       425.0    
        425.6       426.1       426.6       427.1       427.6       428.0       428.5       428.9       429.3       429.7    
        430.1       430.4       430.8       431.1       431.4       431.7       432.0       432.2       432.4       432.7    
        432.9       433.0       433.2       433.3       433.4       433.5       433.6       433.7       433.7       433.7    
  15    417.4       417.4       417.4       417.3       417.3       417.2       417.2       417.1       417.1       417.0    
        417.0       416.9       416.9       416.9       416.8       416.9       417.0       416.9       416.8       416.6    
        416.4       416.2       415.8       415.3       414.8       414.1       413.4       412.6       411.8       411.1    
        410.3       409.4       408.6       407.7       407.0       407.6       408.0       408.4       409.0       410.1    
        411.2       412.2       413.2       414.1       414.9       415.7       416.5       417.2       418.0       418.7    
        419.4       420.0       420.7       421.4       422.0       422.6       423.2       423.8       424.4       424.9    
        425.5       426.0       426.5       427.0       427.5       428.0       428.4       428.8       429.2       429.6    
        430.0       430.4       430.7       431.1       431.4       431.7       431.9       432.2       432.4       432.6    
        432.8       433.0       433.2       433.3       433.4       433.5       433.6       433.7       433.7       433.7    
  16    417.3       417.3       417.2       417.2       417.2       417.1       417.1       417.0       417.0       416.9    
        416.8       416.8       416.8       416.7       416.7       416.7       416.8       416.8       417.0       416.7    
        416.5       416.4       416.0       415.5       414.8       414.1       413.3       412.4       411.5       410.6    
        409.8       408.9       408.0       407.0       407.3       407.7       408.1       408.7       409.3       410.2    
        411.1       412.0       412.9       413.8       414.6       415.4       416.2       417.0       417.7       418.5    
        419.2       419.9       420.5       421.2       421.8       422.5       423.1       423.7       424.3       424.8    
        425.4       425.9       426.4       426.9       427.4       427.9       428.3       428.8       429.2       429.6    
        430.0       430.3       430.7       431.0       431.3       431.6       431.9       432.2       432.4       432.6    
        432.8       433.0       433.1       433.3       433.4       433.5       433.6       433.6       433.7       433.7    
  17    417.1       417.1       417.1       417.1       417.0       417.0       416.9       416.9       416.8       416.8    
        416.7       416.6       416.6       416.6       416.5       416.5       416.5       416.5       416.6       416.5    
        416.6       417.0       416.2       415.7       415.0       414.2       413.2       412.1       411.1       410.1    
        409.3       408.4       407.6       407.0       407.3       407.7       408.2       408.7       409.4       410.1    
        411.0       411.8       412.7       413.6       414.4       415.2       416.0       416.8       417.5       418.3    
        419.0       419.7       420.4       421.0       421.7       422.3       422.9       423.5       424.1       424.7    
        425.3       425.8       426.3       426.8       427.3       427.8       428.2       428.7       429.1       429.5    
        429.9       430.3       430.6       431.0       431.3       431.6       431.9       432.1       432.4       432.6    
        432.8       433.0       433.1       433.3       433.4       433.5       433.6       433.6       433.7       433.7    
  18    417.0       417.0       416.9       416.9       416.9       416.8       416.8       416.7       416.7       416.6    
        416.5       416.5       416.4       416.4       416.3       416.3       416.2       416.2       416.2       416.2    
        416.2       416.3       416.2       416.0       415.3       414.4       413.1       411.7       410.6       409.6    
        408.7       407.9       407.0       407.1       407.3       407.7       408.1       408.7       409.3       410.0    
        410.8       411.6       412.5       413.3       414.1       414.9       415.7       416.5       417.3       418.0    
        418.8       419.5       420.2       420.9       421.5       422.2       422.8       423.4       424.0       424.6    
        425.1       425.7       426.2       426.7       427.2       427.7       428.2       428.6       429.0       429.5    
        429.8       430.2       430.6       430.9       431.2       431.5       431.8       432.1       432.3       432.5    
        432.8       432.9       433.1       433.2       433.4       433.5       433.6       433.6       433.7       433.7    
  19    416.8       416.8       416.8       416.7       416.7       416.7       416.6       416.6       416.5       416.4    
        416.4       416.3       416.2       416.1       416.1       416.0       416.0       415.9       415.8       415.8    
        415.8       415.9       416.1       417.0       415.7       415.0       413.0       411.2       409.9       408.9    
        408.1       407.4       407.0       406.9       407.1       407.5       407.9       408.5       409.1       409.8    
        410.6       411.4       412.2       413.1       413.9       414.7       415.5       416.3       417.1       417.8    
        418.6       419.3       420.0       420.7       421.4       422.0       422.6       423.3       423.9       424.5    
        425.0       425.6       426.1       426.6       427.1       427.6       428.1       428.5       429.0       429.4    
        429.8       430.2       430.5       430.9       431.2       431.5       431.8       432.0       432.3       432.5    
        432.7       432.9       433.1       433.2       433.3       433.5       433.5       433.6       433.6       433.7    
  20    416.6       416.6       416.6       416.6       416.5       416.5       416.4       416.4       416.3       416.2    
        416.2       416.1       416.0       415.9       415.8       415.7       415.6       415.5       415.4       415.4    
        415.3       415.3       415.3       415.5       415.5       416.9       412.7       410.2       408.8       407.9    
        407.2       406.6       406.0       406.4       406.7       407.2       407.7       408.2       408.9       409.6    
        410.3       411.1       411.9       412.8       413.6       414.4       415.2       416.1       416.8       417.6    
        418.4       419.1       419.8       420.5       421.2       421.9       422.5       423.1       423.7       424.3    
        424.9       425.5       426.0       426.5       427.0       427.5       428.0       428.5       428.9       429.3    
        429.7       430.1       430.5       430.8       431.1       431.5       431.7       432.0       432.3       432.5    
        432.7       432.9       433.1       433.2       433.3       433.4       433.5       433.6       433.6       433.6    
  21    416.4       416.4       416.4       416.4       416.3       416.3       416.2       416.2       416.1       416.0    
        415.9       415.8       415.7       415.6       415.5       415.4       415.3       415.2       415.0       414.9    
        414.7       414.6       414.4       414.2       413.7       413.0       410.5       408.0       407.3       406.8    
        406.3       405.8       405.0       405.8       406.3       406.8       407.3       407.9       408.5       409.2    
        410.0       410.8       411.6       412.5       413.3       414.2       415.0       415.8       416.6       417.4    
        418.2       418.9       419.6       420.3       421.0       421.7       422.3       423.0       423.6       424.2    
        424.8       425.3       425.9       426.4       426.9       427.4       427.9       428.4       428.8       429.2    
        429.7       430.0       430.4       430.8       431.1       431.4       431.7       432.0       432.2       432.5    
        432.7       432.9       433.0       433.2       433.3       433.4       433.5       433.6       433.6       433.6    
  22    416.2       416.2       416.2       416.2       416.1       416.1       416.0       416.0       415.9       415.8    
        415.7       415.6       415.5       415.4       415.2       415.1       414.9       414.8       414.6       414.4    
        414.1       413.9       413.5       413.0       412.2       410.9       408.4       404.1       405.6       405.5    
        405.5       405.3       405.0       405.5       405.9       406.4       406.9       407.4       408.1       408.8    
        409.6       410.4       411.3       412.2       413.0       413.9       414.7       415.6       416.4       417.2    
        417.9       418.7       419.4       420.2       420.9       421.5       422.2       422.8       423.5       424.1    
        424.6       425.2       425.8       426.3       426.8       427.3       427.8       428.3       428.7       429.2    
        429.6       430.0       430.4       430.7       431.1       431.4       431.7       431.9       432.2       432.4    
        432.7       432.8       433.0       433.2       433.3       433.4       433.5       433.6       433.6       433.6    
  23    416.0       416.0       416.0       416.0       415.9       415.9       415.8       415.7       415.7       415.6    
        415.5       415.3       415.2       415.1       414.9       414.8       414.6       414.4       414.1       413.9    
        413.6       413.2       412.7       412.1       411.2       410.0       408.2       406.1       405.4       404.0    
        404.8       405.0       404.9       405.2       405.5       405.9       406.3       406.9       407.6       408.3    
        409.2       410.0       410.9       411.8       412.7       413.6       414.5       415.3       416.1       417.0    
        417.7       418.5       419.3       420.0       420.7       421.4       422.0       422.7       423.3       423.9    
        424.5       425.1       425.7       426.2       426.7       427.2       427.7       428.2       428.7       429.1    
        429.5       429.9       430.3       430.7       431.0       431.3       431.6       431.9       432.2       432.4    
        432.6       432.8       433.0       433.2       433.3       433.4       433.5       433.5       433.6       433.6    
  24    415.8       415.8       415.8       415.7       415.7       415.6       415.6       415.5       415.4       415.3    
        415.2       415.1       414.9       414.8       414.6       414.4       414.2       414.0       413.7       413.4    
        413.1       412.6       412.1       411.4       410.6       409.5       408.2       406.9       405.9       405.1    
        404.7       404.0       404.4       404.8       405.0       405.3       405.7       406.2       406.9       407.8    
        408.6       409.6       410.5       411.4       412.4       413.3       414.2       415.1       415.9       416.7    
        417.5       418.3       419.1       419.8       420.5       421.2       421.9       422.5       423.2       423.8    
        424.4       425.0       425.5       426.1       426.6       427.1       427.6       428.1       428.6       429.0    
        429.4       429.9       430.2       430.6       431.0       431.3       431.6       431.9       432.1       432.4    
        432.6       432.8       433.0       433.1       433.3       433.4       433.5       433.5       433.6       433.6    
  25    415.6       415.6       415.6       415.5       415.5       415.4       415.3       415.3       415.2       415.1    
        414.9       414.8       414.7       414.5       414.3       414.1       413.9       413.6       413.3       413.0    
        412.6       412.1       411.6       410.9       410.2       409.2       408.2       407.2       406.3       405.6    
        405.0       404.5       404.0       404.4       404.5       404.6       404.8       405.4       406.2       407.1    
        408.1       409.1       410.1       411.1       412.0       413.0       413.9       414.8       415.7       416.5    
        417.3       418.1       418.9       419.6       420.3       421.0       421.7       422.4       423.0       423.6    
        424.2       424.8       425.4       426.0       426.5       427.0       427.5       428.0       428.5       428.9    
        429.4       429.8       430.2       430.6       430.9       431.2       431.6       431.8       432.1       432.4    
        432.6       432.8       433.0       433.1       433.3       433.4       433.5       433.5       433.6       433.6    
  26    415.4       415.3       415.3       415.3       415.2       415.2       415.1       415.0       414.9       414.8    
        414.7       414.5       414.4       414.2       414.0       413.8       413.5       413.3       412.9       412.6    
        412.2       411.7       411.2       410.6       409.8       409.0       408.2       407.4       406.6       405.9    
        405.3       404.8       404.4       404.2       404.0       403.7       403.5       404.3       405.3       406.3    
        407.4       408.6       409.6       410.7       411.7       412.7       413.7       414.6       415.5       416.3    
        417.1       417.9       418.7       419.4       420.2       420.9       421.6       422.2       422.9       423.5    
        424.1       424.7       425.3       425.8       426.4       426.9       427.4       427.9       428.4       428.9    
        429.3       429.7       430.1       430.5       430.9       431.2       431.5       431.8       432.1       432.3    
        432.6       432.8       433.0       433.1       433.3       433.4       433.5       433.5       433.6       433.6    
  27    415.1       415.1       415.1       415.0       415.0       414.9       414.8       414.8       414.6       414.5    
        414.4       414.2       414.1       413.9       413.7       413.4       413.2       412.9       412.6       412.2    
        411.8       411.4       410.8       410.2       409.6       408.9       408.1       407.4       406.7       406.1    
        405.5       405.0       404.6       404.2       403.7       402.9       401.0       403.1       404.3       405.5    
        406.8       408.0       409.2       410.3       411.4       412.4       413.4       414.3       415.2       416.1    
        416.9       417.7       418.5       419.3       420.0       420.7       421.4       422.1       422.7       423.3    
        424.0       424.6       425.1       425.7       426.3       426.8       427.3       427.8       428.3       428.8    
        429.2       429.7       430.1       430.5       430.8       431.2       431.5       431.8       432.1       432.3    
        432.6       432.8       432.9       433.1       433.2       433.4       433.5       433.5       433.6       433.6    
  28    414.9       414.9       414.8       414.8       414.7       414.7       414.6       414.5       414.4       414.3    
        414.1       414.0       413.8       413.6       413.4       413.1       412.9       412.6       412.2       411.9    
        411.5       411.0       410.5       410.0       409.4       408.7       408.1       407.4       406.8       406.2    
        405.6       405.1       404.6       404.2       403.6       403.0       402.4       402.7       403.2       404.7    
        406.2       407.6       408.8       410.0       411.1       412.2       413.2       414.1       415.0       415.9    
        416.8       417.6       418.3       419.1       419.8       420.5       421.2       421.9       422.5       423.2    
        423.8       424.4       425.0       425.6       426.1       426.7       427.2       427.7       428.2       428.7    
        429.2       429.6       430.0       430.4       430.8       431.1       431.5       431.8       432.0       432.3    
        432.5       432.8       432.9       433.1       433.2       433.4       433.5       433.5       433.6       433.6    
  29    414.6       414.6       414.6       414.5       414.5       414.4       414.3       414.2       414.1       414.0    
        413.8       413.7       413.5       413.3       413.1       412.8       412.6       412.3       411.9       411.6    
        411.2       410.7       410.2       409.7       409.2       408.6       408.0       407.4       406.8       406.2    
        405.7       405.2       404.7       404.2       403.7       403.1       402.6       402.2       401.0       403.8    
        405.7       407.2       408.5       409.7       410.9       412.0       413.0       413.9       414.9       415.7    
        416.6       417.4       418.2       418.9       419.7       420.4       421.1       421.7       422.4       423.0    
        423.7       424.3       424.9       425.5       426.0       426.6       427.1       427.6       428.1       428.6    
        429.1       429.5       430.0       430.4       430.7       431.1       431.4       431.7       432.0       432.3    
        432.5       432.7       432.9       433.1       433.2       433.4       433.5       433.5       433.6       433.6    
  30    414.4       414.3       414.3       414.3       414.2       414.1       414.1       414.0       413.8       413.7    
        413.6       413.4       413.2       413.0       412.8       412.5       412.2       411.9       411.6       411.3    
        410.9       410.4       410.0       409.5       409.0       408.4       407.9       407.3       406.8       406.2    
        405.7       405.2       404.7       404.2       403.7       403.2       402.8       402.5       402.5       403.9    
        405.5       406.9       408.3       409.5       410.7       411.8       412.8       413.8       414.7       415.6    
        416.4       417.2       418.0       418.8       419.5       420.2       420.9       421.6       422.2       422.9    
        423.5       424.1       424.7       425.3       425.9       426.5       427.0       427.5       428.1       428.5    
        429.0       429.5       429.9       430.3       430.7       431.1       431.4       431.7       432.0       432.3    
        432.5       432.7       432.9       433.1       433.3       433.4       433.5       433.5       433.6       433.6    
  31    414.1       414.1       414.0       414.0       413.9       413.9       413.8       413.7       413.6       413.4    
        413.3       413.1       412.9       412.7       412.5       412.2       411.9       411.6       411.3       411.0    
        410.6       410.2       409.7       409.3       408.8       408.3       407.8       407.2       406.7       406.2    
        405.7       405.2       404.7       404.2       403.7       403.3       402.8       402.5       402.5       403.8    
        405.3       406.8       408.1       409.4       410.6       411.7       412.7       413.7       414.6       415.5    
        416.3       417.1       417.9       418.6       419.3       420.0       420.7       421.4       422.0       422.7    
        423.3       423.9       424.6       425.2       425.8       426.3       426.9       427.4       428.0       428.5    
        429.0       429.4       429.9       430.3       430.7       431.0       431.4       431.7       432.0       432.3    
        432.5       432.7       432.9       433.1       433.3       433.4       433.5       433.6       433.6       433.6    
  32    413.8       413.8       413.8       413.7       413.7       413.6       413.5       413.4       413.3       413.1    
        413.0       412.8       412.6       412.4       412.2       411.9       411.6       411.4       411.0       410.7    
        410.3       409.9       409.5       409.1       408.6       408.1       407.6       407.1       406.6       406.1    
        405.6       405.1       404.6       404.2       403.7       403.2       402.7       402.2       401.0       403.5    
        405.2       406.7       408.1       409.3       410.5       411.6       412.6       413.6       414.5       415.3    
        416.2       417.0       417.7       418.5       419.2       419.9       420.5       421.2       421.9       422.5    
        423.1       423.8       424.4       425.0       425.6       426.2       426.8       427.3       427.9       428.4    
        428.9       429.4       429.8       430.2       430.6       431.0       431.4       431.7       432.0       432.3    
        432.5       432.8       433.0       433.1       433.3       433.4       433.5       433.6       433.6       433.7    
  33    413.5       413.5       413.5       413.5       413.4       413.3       413.2       413.1       413.0       412.8    
        412.7       412.5       412.3       412.1       411.9       411.6       411.4       411.1       410.7       410.4    
        410.1       409.7       409.3       408.8       408.4       408.0       407.5       407.0       406.5       406.0    
        405.6       405.1       404.6       404.1       403.6       403.1       402.7       402.4       402.6       403.9    
        405.4       406.8       408.1       409.3       410.4       411.5       412.5       413.5       414.4       415.2    
        416.1       416.8       417.6       418.3       419.0       419.7       420.4       421.0       421.7       422.3    
        423.0       423.6       424.2       424.8       425.5       426.1       426.7       427.2       427.8       428.3    
        428.8       429.3       429.8       430.2       430.6       431.0       431.4       431.7       432.0       432.3    
        432.5       432.8       433.0       433.1       433.3       433.4       433.5       433.6       433.7       433.7    
  34    413.3       413.2       413.2       413.2       413.1       413.0       412.9       412.8       412.7       412.6    
        412.4       412.2       412.0       411.8       411.6       411.3       411.1       410.8       410.5       410.1    
        409.8       409.4       409.0       408.6       408.2       407.8       407.3       406.9       406.4       405.9    
        405.5       405.0       404.5       404.0       403.5       403.0       402.5       402.3       403.0       404.2    
        405.5       406.9       408.1       409.3       410.5       411.5       412.5       413.4       414.3       415.2    
        416.0       416.7       417.4       418.2       418.8       419.5       420.2       420.8       421.5       422.1    
        422.7       423.4       424.0       424.7       425.3       425.9       426.5       427.1       427.7       428.2    
        428.8       429.3       429.7       430.2       430.6       431.0       431.4       431.7       432.0       432.3    
        432.5       432.8       433.0       433.2       433.3       433.4       433.6       433.6       433.7       433.7    
  35    413.0       413.0       412.9       412.9       412.8       412.7       412.6       412.5       412.4       412.3    
        412.1       411.9       411.7       411.5       411.3       411.0       410.8       410.5       410.2       409.9    
        409.5       409.2       408.8       408.4       408.0       407.6       407.2       406.7       406.3       405.8    
        405.4       404.9       404.4       403.9       403.4       402.8       402.2       401.0       402.9       404.3    
        405.7       407.0       408.3       409.4       410.5       411.6       412.5       413.4       414.3       415.1    
        415.9       416.6       417.3       418.0       418.7       419.3       420.0       420.6       421.2       421.9    
        422.5       423.2       423.8       424.5       425.1       425.8       426.4       427.0       427.6       428.2    
        428.7       429.2       429.7       430.2       430.6       431.0       431.4       431.7       432.0       432.3    
        432.6       432.8       433.0       433.2       433.4       433.5       433.6       433.7       433.7       433.7    
  36    412.7       412.7       412.6       412.6       412.5       412.4       412.3       412.2       412.1       412.0    
        411.8       411.6       411.4       411.2       411.0       410.7       410.5       410.2       409.9       409.6    
        409.3       408.9       408.5       408.2       407.8       407.4       407.0       406.6       406.1       405.7    
        405.2       404.8       404.3       403.8       403.3       402.8       402.2       401.9       403.1       404.5    
        405.9       407.2       408.4       409.6       410.7       411.7       412.6       413.5       414.3       415.1    
        415.8       416.5       417.2       417.9       418.5       419.1       419.7       420.3       421.0       421.6    
        422.3       422.9       423.6       424.3       425.0       425.6       426.3       426.9       427.5       428.1    
        428.7       429.2       429.7       430.1       430.6       431.0       431.4       431.7       432.0       432.3    
        432.6       432.8       433.0       433.2       433.4       433.5       433.6       433.7       433.8       433.8    
  37    412.4       412.4       412.3       412.3       412.2       412.1       412.1       411.9       411.8       411.7    
        411.5       411.3       411.1       410.9       410.7       410.4       410.2       409.9       409.6       409.3    
        409.0       408.6       408.3       407.9       407.6       407.2       406.8       406.4       406.0       405.5    
        405.1       404.7       404.2       403.7       403.2       402.7       402.1       401.0       403.2       404.8    
        406.2       407.5       408.7       409.8       410.8       411.8       412.7       413.5       414.3       415.0    
        415.8       416.4       417.1       417.7       418.3       418.9       419.5       420.1       420.7       421.3    
        422.0       422.6       423.4       424.1       424.8       425.5       426.2       426.8       427.4       428.0    
        428.6       429.2       429.7       430.1       430.6       431.0       431.4       431.7       432.1       432.4    
        432.6       432.9       433.1       433.3       433.4       433.6       433.7       433.8       433.8       433.8    
  38    412.1       412.1       412.0       412.0       411.9       411.8       411.7       411.6       411.5       411.4    
        411.2       411.0       410.8       410.6       410.4       410.1       409.9       409.6       409.3       409.0    
        408.7       408.4       408.0       407.7       407.3       407.0       406.6       406.2       405.8       405.4    
        405.0       404.5       404.1       403.6       403.1       402.7       402.4       402.6       403.8       405.2    
        406.5       407.8       409.0       410.1       411.1       412.0       412.8       413.6       414.3       415.0    
        415.7       416.4       417.0       417.6       418.1       418.7       419.2       419.8       420.4       421.0    
        421.6       422.3       423.1       423.8       424.6       425.3       426.0       426.7       427.4       428.0    
        428.6       429.1       429.7       430.1       430.6       431.0       431.4       431.8       432.1       432.4    
        432.7       432.9       433.1       433.3       433.5       433.6       433.7       433.8       433.9       433.9    
  39    411.8       411.8       411.7       411.7       411.6       411.5       411.4       411.3       411.2       411.0    
        410.9       410.7       410.5       410.3       410.1       409.8       409.6       409.3       409.0       408.7    
        408.4       408.1       407.8       407.4       407.1       406.7       406.4       406.0       405.6       405.2    
        404.8       404.4       403.9       403.5       403.0       402.5       402.2       403.0       404.2       405.6    
        406.9       408.2       409.4       410.4       411.3       412.2       413.0       413.7       414.4       415.1    
        415.7       416.3       416.9       417.4       417.9       418.4       418.9       419.4       420.0       420.6    
        421.2       422.0       422.8       423.6       424.4       425.2       425.9       426.7       427.3       428.0    
        428.6       429.1       429.7       430.2       430.6       431.0       431.4       431.8       432.1       432.4    
        432.7       433.0       433.2       433.4       433.5       433.7       433.8       433.9       433.9       433.9    
  40    411.5       411.5       411.4       411.4       411.3       411.2       411.1       411.0       410.9       410.7    
        410.6       410.4       410.2       410.0       409.8       409.5       409.3       409.0       408.7       408.4    
        408.1       407.8       407.5       407.2       406.8       406.5       406.2       405.8       405.4       405.1    
        404.7       404.3       403.8       403.3       402.8       402.1       401.0       402.9       404.5       406.0    
        407.4       408.7       409.8       410.8       411.7       412.5       413.2       413.8       414.5       415.1    
        415.7       416.2       416.8       417.3       417.7       418.2       418.6       419.0       419.5       420.0    
        420.7       421.5       422.4       423.3       424.2       425.0       425.8       426.6       427.3       428.0    
        428.6       429.1       429.7       430.2       430.7       431.1       431.5       431.9       432.2       432.5    
        432.8       433.0       433.3       433.4       433.6       433.7       433.9       433.9       434.0       434.0    
  41    411.2       411.2       411.1       411.1       411.0       410.9       410.8       410.7       410.6       410.4    
        410.3       410.1       409.9       409.7       409.4       409.2       408.9       408.7       408.4       408.1    
        407.8       407.5       407.2       406.9       406.6       406.3       405.9       405.6       405.3       404.9    
        404.5       404.1       403.7       403.2       402.7       402.2       401.9       403.2       404.8       406.4    
        407.9       409.3       410.4       411.4       412.2       412.8       413.4       414.0       414.5       415.1    
        415.6       416.2       416.7       417.1       417.5       417.9       418.2       418.6       419.0       419.4    
        420.0       421.0       422.0       423.1       424.0       424.9       425.8       426.6       427.3       428.0    
        428.6       429.2       429.7       430.2       430.7       431.1       431.5       431.9       432.3       432.6    
        432.9       433.1       433.3       433.5       433.7       433.8       433.9       434.0       434.1       434.1    
  42    410.9       410.8       410.8       410.8       410.7       410.6       410.5       410.4       410.3       410.1    
        409.9       409.8       409.6       409.3       409.1       408.9       408.6       408.4       408.1       407.8    
        407.5       407.2       406.9       406.6       406.3       406.0       405.7       405.4       405.1       404.8    
        404.4       404.0       403.6       403.2       402.6       402.0       401.0       403.3       405.0       406.9    
        408.6       410.1       411.3       412.1       412.7       413.2       413.6       414.1       414.6       415.0    
        415.6       416.2       416.6       417.0       417.4       417.6       417.9       418.1       418.3       418.6    
        419.0       420.3       421.6       422.8       423.9       424.9       425.8       426.6       427.3       428.0    
        428.6       429.2       429.8       430.3       430.8       431.2       431.6       432.0       432.3       432.6    
        432.9       433.2       433.4       433.6       433.8       433.9       434.0       434.1       434.1       434.2    
  43    410.5       410.5       410.5       410.4       410.4       410.3       410.2       410.1       409.9       409.8    
        409.6       409.4       409.2       409.0       408.8       408.5       408.3       408.0       407.7       407.5    
        407.2       406.9       406.6       406.3       406.0       405.7       405.4       405.1       404.9       404.6    
        404.3       404.0       403.6       403.1       402.6       402.3       402.4       403.7       405.2       407.4    
        409.6       411.3       412.4       412.9       413.3       413.6       413.9       414.2       414.6       414.8    
        415.6       416.2       416.7       417.0       417.2       417.4       417.5       417.6       417.6       417.6    
        417.1       419.6       421.3       422.7       423.9       424.9       425.8       426.6       427.4       428.1    
        428.7       429.3       429.9       430.4       430.9       431.3       431.7       432.1       432.4       432.7    
        433.0       433.3       433.5       433.7       433.9       434.0       434.1       434.2       434.2       434.3    
  44    410.2       410.2       410.2       410.1       410.0       410.0       409.9       409.7       409.6       409.5    
        409.3       409.1       408.9       408.7       408.4       408.2       407.9       407.7       407.4       407.1    
        406.8       406.5       406.2       405.9       405.7       405.4       405.1       404.9       404.6       404.4    
        404.2       403.9       403.5       403.0       402.5       402.1       402.5       404.0       404.7       408.0    
        411.0       413.0       414.0       414.0       414.0       414.0       414.0       414.0       415.0       414.1    
        415.8       416.5       416.8       417.0       417.1       417.2       417.2       417.0       417.0       417.0    
        417.0       419.6       421.4       422.8       424.0       425.0       425.9       426.7       427.5       428.2    
        428.8       429.4       430.0       430.5       431.0       431.4       431.8       432.2       432.5       432.8    
        433.1       433.4       433.6       433.8       433.9       434.1       434.2       434.3       434.3       434.4    
  45    409.9       409.9       409.8       409.8       409.7       409.6       409.5       409.4       409.3       409.1    
        408.9       408.8       408.6       408.3       408.1       407.9       407.6       407.3       407.0       406.8    
        406.5       406.2       405.9       405.6       405.3       405.0       404.8       404.6       404.4       404.3    
        404.1       404.0       403.6       403.0       402.2       401.0       403.0       404.6       406.1       408.2    
        410.3       412.0       413.0       413.5       413.9       414.1       414.4       414.7       415.2       415.6    
        417.0       417.0       417.0       417.0       417.0       417.0       417.0       417.0       417.8       418.3    
        419.0       420.4       421.8       423.1       424.2       425.1       426.0       426.9       427.6       428.3    
        428.9       429.5       430.1       430.6       431.1       431.5       431.9       432.3       432.6       432.9    
        433.2       433.5       433.7       433.9       434.1       434.2       434.3       434.4       434.4       434.5    
  46    409.6       409.6       409.5       409.5       409.4       409.3       409.2       409.1       408.9       408.8    
        408.6       408.4       408.2       408.0       407.7       407.5       407.2       407.0       406.7       406.4    
        406.1       405.8       405.5       405.2       404.9       404.6       404.4       404.2       404.1       404.0    
        404.1       404.2       404.0       403.0       402.2       402.6       403.9       405.4       406.9       408.5    
        410.1       411.5       412.5       413.2       413.8       414.2       414.6       415.1       415.6       416.1    
        416.8       417.1       417.3       417.5       417.6       417.8       418.0       418.3       418.8       419.4    
        420.2       421.3       422.4       423.5       424.5       425.4       426.3       427.0       427.8       428.4    
        429.1       429.7       430.2       430.7       431.2       431.6       432.0       432.4       432.7       433.1    
        433.3       433.6       433.8       434.0       434.2       434.3       434.4       434.5       434.5       434.6    
  47    409.2       409.2       409.2       409.1       409.1       409.0       408.9       408.7       408.6       408.4    
        408.3       408.1       407.9       407.6       407.4       407.1       406.9       406.6       406.3       406.0    
        405.7       405.4       405.1       404.8       404.5       404.2       404.0       403.8       403.6       403.7    
        404.0       404.8       405.3       402.6       401.0       403.2       404.7       406.1       407.4       408.8    
        410.1       411.3       412.3       413.1       413.8       414.3       414.8       415.4       415.9       416.4    
        417.0       417.4       417.7       418.0       418.2       418.5       418.8       419.2       419.8       420.4    
        421.2       422.0       423.0       423.9       424.8       425.7       426.5       427.3       428.0       428.6    
        429.3       429.8       430.4       430.9       431.3       431.8       432.2       432.5       432.9       433.2    
        433.5       433.7       433.9       434.1       434.3       434.4       434.5       434.6       434.7       434.7    
  48    408.9       408.9       408.9       408.8       408.7       408.6       408.5       408.4       408.3       408.1    
        407.9       407.7       407.5       407.3       407.0       406.8       406.5       406.2       405.9       405.6    
        405.3       404.9       404.6       404.3       404.0       403.7       403.5       403.2       403.0       403.0    
        403.4       405.6       409.8       401.2       403.0       404.4       405.6       406.7       407.9       409.1    
        410.3       411.3       412.3       413.1       413.8       414.5       415.1       415.6       416.2       416.7    
        417.2       417.7       418.1       418.4       418.8       419.2       419.6       420.0       420.6       421.2    
        421.9       422.7       423.6       424.4       425.2       426.0       426.8       427.5       428.2       428.8    
        429.4       430.0       430.5       431.0       431.5       431.9       432.3       432.7       433.0       433.3    
        433.6       433.8       434.1       434.3       434.4       434.6       434.7       434.7       434.8       434.8    
  49    408.6       408.6       408.5       408.5       408.4       408.3       408.2       408.1       407.9       407.8    
        407.6       407.4       407.2       406.9       406.7       406.4       406.1       405.8       405.5       405.2    
        404.8       404.5       404.2       403.8       403.5       403.2       402.9       402.6       402.3       401.8    
        401.1       404.2       406.5       405.7       405.4       405.8       406.5       407.4       408.4       409.4    
        410.5       411.5       412.4       413.2       414.0       414.6       415.3       415.9       416.4       417.0    
        417.5       418.0       418.5       418.9       419.3       419.8       420.2       420.7       421.3       421.9    
[...]
        425.3       426.0       426.8       427.6       428.3       429.1       429.8       430.5       431.3       432.0    
        432.7       433.4       434.1       434.7       435.4       436.1       436.7       437.3       438.0       438.6    
        439.2       439.7       440.3       440.9       441.4       441.9       442.5       443.0       443.5       443.9    
        444.4       444.8       445.3       445.7       446.1       446.5       446.9       447.2       447.6       447.9    
        448.2       448.5       448.8       449.0       449.3       449.5       449.7       450.0       450.1       450.3    
        450.5       450.6       450.7       450.9       450.9       451.0       451.1       451.1       451.2       451.2    
 146    407.4       407.5       407.6       407.8       408.1       408.5       408.9       409.4       409.9       410.4    
        411.0       411.6       412.3       412.9       413.6       414.3       415.0       415.7       416.4       417.2    
        417.9       418.7       419.4       420.2       421.0       421.7       422.5       423.3       424.0       424.8    
        425.6       426.3       427.1       427.8       428.6       429.3       430.0       430.8       431.5       432.2    
        432.9       433.6       434.2       434.9       435.6       436.2       436.9       437.5       438.1       438.7    
        439.3       439.9       440.4       441.0       441.5       442.1       442.6       443.1       443.6       444.0    
        444.5       444.9       445.4       445.8       446.2       446.6       446.9       447.3       447.6       448.0    
        448.3       448.6       448.8       449.1       449.4       449.6       449.8       450.0       450.2       450.4    
        450.5       450.7       450.8       450.9       451.0       451.1       451.2       451.2       451.2       451.3    
 147    408.4       408.4       408.6       408.8       409.0       409.4       409.8       410.2       410.7       411.2    
        411.7       412.3       412.9       413.5       414.2       414.8       415.5       416.2       416.9       417.6    
        418.4       419.1       419.8       420.6       421.3       422.1       422.8       423.6       424.3       425.1    
        425.8       426.6       427.3       428.1       428.8       429.5       430.2       431.0       431.7       432.4    
        433.1       433.7       434.4       435.1       435.7       436.4       437.0       437.6       438.2       438.8    
        439.4       440.0       440.6       441.1       441.6       442.2       442.7       443.2       443.7       444.1    
        444.6       445.0       445.5       445.9       446.3       446.6       447.0       447.4       447.7       448.0    
        448.3       448.6       448.9       449.2       449.4       449.7       449.9       450.1       450.3       450.5    
        450.6       450.7       450.9       451.0       451.1       451.2       451.2       451.3       451.3       451.3    
 148    409.2       409.3       409.4       409.6       409.9       410.2       410.5       410.9       411.4       411.9    
        412.4       412.9       413.5       414.1       414.7       415.4       416.0       416.7       417.4       418.1    
        418.8       419.5       420.2       420.9       421.7       422.4       423.1       423.9       424.6       425.4    
        426.1       426.8       427.6       428.3       429.0       429.7       430.4       431.2       431.9       432.5    
        433.2       433.9       434.6       435.2       435.9       436.5       437.1       437.8       438.4       439.0    
        439.5       440.1       440.7       441.2       441.7       442.3       442.8       443.3       443.7       444.2    
        444.7       445.1       445.5       445.9       446.3       446.7       447.1       447.4       447.8       448.1    
        448.4       448.7       449.0       449.3       449.5       449.7       450.0       450.2       450.3       450.5    
        450.7       450.8       450.9       451.0       451.1       451.2       451.3       451.3       451.4       451.4    
 149    410.0       410.1       410.2       410.4       410.6       410.9       411.2       411.6       412.0       412.5    
        413.0       413.5       414.1       414.6       415.2       415.8       416.5       417.1       417.8       418.5    
        419.2       419.9       420.6       421.3       422.0       422.7       423.4       424.2       424.9       425.6    
        426.3       427.1       427.8       428.5       429.2       429.9       430.6       431.3       432.0       432.7    
        433.4       434.1       434.7       435.4       436.0       436.6       437.3       437.9       438.5       439.1    
        439.6       440.2       440.8       441.3       441.8       442.4       442.9       443.4       443.8       444.3    
        444.7       445.2       445.6       446.0       446.4       446.8       447.2       447.5       447.8       448.2    
        448.5       448.8       449.1       449.3       449.6       449.8       450.0       450.2       450.4       450.6    
        450.7       450.9       451.0       451.1       451.2       451.3       451.3       451.4       451.4       451.4    
 150    410.8       410.8       410.9       411.1       411.3       411.6       411.9       412.2       412.6       413.1    
        413.5       414.0       414.6       415.1       415.7       416.3       416.9       417.5       418.2       418.8    
        419.5       420.2       420.9       421.6       422.3       423.0       423.7       424.4       425.1       425.8    
        426.6       427.3       428.0       428.7       429.4       430.1       430.8       431.5       432.2       432.9    
        433.5       434.2       434.8       435.5       436.1       436.8       437.4       438.0       438.6       439.2    
        439.7       440.3       440.9       441.4       441.9       442.4       442.9       443.4       443.9       444.4    
        444.8       445.3       445.7       446.1       446.5       446.9       447.2       447.6       447.9       448.2    
        448.5       448.8       449.1       449.4       449.6       449.8       450.1       450.3       450.5       450.6    
        450.8       450.9       451.0       451.2       451.2       451.3       451.4       451.4       451.5       451.5    
 151    411.4       411.5       411.6       411.7       411.9       412.2       412.5       412.8       413.2       413.6    
        414.0       414.5       415.0       415.6       416.1       416.7       417.3       417.9       418.5       419.2    
        419.8       420.5       421.2       421.9       422.6       423.2       423.9       424.7       425.4       426.1    
        426.8       427.5       428.2       428.9       429.6       430.3       431.0       431.6       432.3       433.0    
        433.7       434.3       435.0       435.6       436.2       436.9       437.5       438.1       438.7       439.3    
        439.8       440.4       440.9       441.5       442.0       442.5       443.0       443.5       444.0       444.4    
        444.9       445.3       445.7       446.1       446.5       446.9       447.3       447.6       448.0       448.3    
        448.6       448.9       449.2       449.4       449.7       449.9       450.1       450.3       450.5       450.7    
        450.8       451.0       451.1       451.2       451.3       451.4       451.4       451.5       451.5       451.5    
 152    412.0       412.0       412.1       412.3       412.5       412.7       413.0       413.3       413.7       414.1    
        414.5       415.0       415.4       416.0       416.5       417.1       417.6       418.2       418.9       419.5    
        420.1       420.8       421.4       422.1       422.8       423.5       424.2       424.9       425.6       426.3    
        427.0       427.7       428.3       429.0       429.7       430.4       431.1       431.8       432.5       433.1    
        433.8       434.4       435.1       435.7       436.4       437.0       437.6       438.2       438.8       439.4    
        439.9       440.5       441.0       441.6       442.1       442.6       443.1       443.6       444.0       444.5    
        445.0       445.4       445.8       446.2       446.6       447.0       447.3       447.7       448.0       448.3    
        448.6       448.9       449.2       449.5       449.7       449.9       450.2       450.4       450.5       450.7    
        450.9       451.0       451.1       451.2       451.3       451.4       451.5       451.5       451.6       451.6    
 153    412.5       412.5       412.6       412.8       412.9       413.2       413.4       413.7       414.1       414.5    
        414.9       415.3       415.8       416.3       416.8       417.4       418.0       418.5       419.1       419.8    
        420.4       421.0       421.7       422.3       423.0       423.7       424.4       425.1       425.7       426.4    
        427.1       427.8       428.5       429.2       429.9       430.6       431.2       431.9       432.6       433.2    
        433.9       434.5       435.2       435.8       436.4       437.1       437.7       438.3       438.9       439.4    
        440.0       440.5       441.1       441.6       442.1       442.7       443.1       443.6       444.1       444.6    
        445.0       445.4       445.9       446.3       446.6       447.0       447.4       447.7       448.1       448.4    
        448.7       449.0       449.3       449.5       449.8       450.0       450.2       450.4       450.6       450.8    
        450.9       451.0       451.2       451.3       451.4       451.4       451.5       451.6       451.6       451.6    
 154    412.9       413.0       413.0       413.2       413.4       413.6       413.8       414.1       414.5       414.8    
        415.2       415.7       416.1       416.6       417.1       417.7       418.2       418.8       419.4       420.0    
        420.6       421.3       421.9       422.5       423.2       423.9       424.5       425.2       425.9       426.6    
        427.3       428.0       428.6       429.3       430.0       430.7       431.3       432.0       432.7       433.3    
        434.0       434.6       435.3       435.9       436.5       437.1       437.7       438.3       438.9       439.5    
        440.1       440.6       441.2       441.7       442.2       442.7       443.2       443.7       444.2       444.6    
        445.1       445.5       445.9       446.3       446.7       447.1       447.4       447.8       448.1       448.4    
        448.7       449.0       449.3       449.5       449.8       450.0       450.2       450.4       450.6       450.8    
        450.9       451.1       451.2       451.3       451.4       451.5       451.5       451.6       451.6       451.6    
 155    413.3       413.3       413.4       413.5       413.7       413.9       414.2       414.5       414.8       415.1    
        415.5       416.0       416.4       416.9       417.4       417.9       418.5       419.0       419.6       420.2    
        420.8       421.4       422.1       422.7       423.4       424.0       424.7       425.4       426.0       426.7    
        427.4       428.1       428.8       429.4       430.1       430.8       431.4       432.1       432.8       433.4    
        434.1       434.7       435.3       436.0       436.6       437.2       437.8       438.4       439.0       439.6    
        440.1       440.7       441.2       441.7       442.3       442.8       443.2       443.7       444.2       444.7    
        445.1       445.5       445.9       446.3       446.7       447.1       447.5       447.8       448.1       448.5    
        448.8       449.0       449.3       449.6       449.8       450.1       450.3       450.5       450.6       450.8    
        451.0       451.1       451.2       451.3       451.4       451.5       451.6       451.6       451.6       451.7    
 156    413.6       413.6       413.7       413.8       414.0       414.2       414.5       414.7       415.1       415.4    
        415.8       416.2       416.6       417.1       417.6       418.1       418.7       419.2       419.8       420.4    
        421.0       421.6       422.2       422.9       423.5       424.2       424.8       425.5       426.2       426.8    
        427.5       428.2       428.8       429.5       430.2       430.9       431.5       432.2       432.8       433.5    
        434.1       434.8       435.4       436.0       436.7       437.3       437.9       438.5       439.0       439.6    
        440.2       440.7       441.3       441.8       442.3       442.8       443.3       443.8       444.2       444.7    
        445.1       445.6       446.0       446.4       446.8       447.1       447.5       447.8       448.2       448.5    
        448.8       449.1       449.3       449.6       449.8       450.1       450.3       450.5       450.7       450.8    
        451.0       451.1       451.3       451.4       451.5       451.5       451.6       451.6       451.7       451.7    
 157    413.8       413.9       413.9       414.1       414.2       414.4       414.7       415.0       415.3       415.6    
        416.0       416.4       416.8       417.3       417.8       418.3       418.8       419.4       419.9       420.5    
        421.1       421.7       422.3       423.0       423.6       424.3       424.9       425.6       426.2       426.9    
        427.6       428.3       428.9       429.6       430.3       430.9       431.6       432.2       432.9       433.6    
        434.2       434.8       435.5       436.1       436.7       437.3       437.9       438.5       439.1       439.6    
        440.2       440.7       441.3       441.8       442.3       442.8       443.3       443.8       444.3       444.7    
        445.2       445.6       446.0       446.4       446.8       447.2       447.5       447.9       448.2       448.5    
        448.8       449.1       449.4       449.6       449.9       450.1       450.3       450.5       450.7       450.9    
        451.0       451.2       451.3       451.4       451.5       451.6       451.6       451.7       451.7       451.7    
 158    414.0       414.0       414.1       414.2       414.4       414.6       414.8       415.1       415.4       415.8    
        416.1       416.5       417.0       417.4       417.9       418.4       418.9       419.5       420.0       420.6    
        421.2       421.8       422.4       423.1       423.7       424.4       425.0       425.7       426.3       427.0    
        427.6       428.3       429.0       429.7       430.3       431.0       431.6       432.3       432.9       433.6    
        434.2       434.9       435.5       436.1       436.7       437.3       437.9       438.5       439.1       439.7    
        440.2       440.8       441.3       441.8       442.4       442.9       443.3       443.8       444.3       444.7    
        445.2       445.6       446.0       446.4       446.8       447.2       447.5       447.9       448.2       448.5    
        448.8       449.1       449.4       449.6       449.9       450.1       450.3       450.5       450.7       450.9    
        451.0       451.2       451.3       451.4       451.5       451.6       451.6       451.7       451.7       451.7    
 159    414.1       414.2       414.2       414.4       414.5       414.7       415.0       415.2       415.5       415.9    
        416.2       416.6       417.1       417.5       418.0       418.5       419.0       419.6       420.1       420.7    
        421.3       421.9       422.5       423.1       423.8       424.4       425.1       425.7       426.4       427.0    
        427.7       428.4       429.0       429.7       430.4       431.0       431.7       432.3       433.0       433.6    
        434.3       434.9       435.5       436.1       436.8       437.4       438.0       438.5       439.1       439.7    
        440.2       440.8       441.3       441.9       442.4       442.9       443.4       443.8       444.3       444.8    
        445.2       445.6       446.0       446.4       446.8       447.2       447.5       447.9       448.2       448.5    
        448.8       449.1       449.4       449.7       449.9       450.1       450.3       450.5       450.7       450.9    
        451.0       451.2       451.3       451.4       451.5       451.6       451.6       451.7       451.7       451.7    
 160    414.2       414.2       414.3       414.4       414.6       414.8       415.0       415.3       415.6       415.9    
        416.3       416.7       417.1       417.6       418.0       418.5       419.1       419.6       420.2       420.7    
        421.3       421.9       422.5       423.2       423.8       424.4       425.1       425.7       426.4       427.1    
        427.7       428.4       429.0       429.7       430.4       431.0       431.7       432.3       433.0       433.6    
        434.3       434.9       435.5       436.2       436.8       437.4       438.0       438.6       439.1       439.7    
        440.3       440.8       441.3       441.9       442.4       442.9       443.4       443.8       444.3       444.8    
        445.2       445.6       446.0       446.4       446.8       447.2       447.6       447.9       448.2       448.5    
        448.8       449.1       449.4       449.7       449.9       450.1       450.3       450.5       450.7       450.9    
        451.0       451.2       451.3       451.4       451.5       451.6       451.6       451.7       451.7       451.7    

 HEAD WILL BE SAVED ON UNIT   51 AT END OF TIME STEP    1, STRESS PERIOD    1
1
  VOLUMETRIC BUDGET FOR ENTIRE MODEL AT END OF TIME STEP    1, STRESS PERIOD   1
  ------------------------------------------------------------------------------

     CUMULATIVE VOLUMES      L**3       RATES FOR THIS TIME STEP      L**3/T
     ------------------                 ------------------------

           IN:                                      IN:
           ---                                      ---
             STORAGE =           0.0000               STORAGE =           0.0000
       CONSTANT HEAD =           0.0000         CONSTANT HEAD =           0.0000
       RIVER LEAKAGE =       55452.9805         RIVER LEAKAGE =       55452.9805
            RECHARGE =       14400.0000              RECHARGE =       14400.0000

            TOTAL IN =       69852.9844              TOTAL IN =       69852.9844

          OUT:                                     OUT:
          ----                                     ----
             STORAGE =           0.0000               STORAGE =           0.0000
       CONSTANT HEAD =           0.0000         CONSTANT HEAD =           0.0000
       RIVER LEAKAGE =       69852.9844         RIVER LEAKAGE =       69852.9844
            RECHARGE =           0.0000              RECHARGE =           0.0000

           TOTAL OUT =       69852.9844             TOTAL OUT =       69852.9844

            IN - OUT =           0.0000              IN - OUT =           0.0000

 PERCENT DISCREPANCY =           0.00     PERCENT DISCREPANCY =           0.00






         TIME SUMMARY AT END OF TIME STEP    1 IN STRESS PERIOD    1
                    SECONDS     MINUTES      HOURS       DAYS        YEARS
                    -----------------------------------------------------------
   TIME STEP LENGTH  86400.      1440.0      24.000      1.0000     2.73785E-03
 STRESS PERIOD TIME  86400.      1440.0      24.000      1.0000     2.73785E-03
         TOTAL TIME  86400.      1440.0      24.000      1.0000     2.73785E-03
1

 Run end date and time (yyyy/mm/dd hh:mm:ss): 2020/04/06 16:46:23
 Elapsed run time:  0.153 Seconds

