                                  MODFLOW-2005     
      U.S. GEOLOGICAL SURVEY MODULAR FINITE-DIFFERENCE GROUND-WATER FLOW MODEL
                            VERSION 1.12.00 2/3/2017

 LIST FILE: my_model.list
                         UNIT    2

 OPENING my_model.dis
 FILE TYPE:DIS   UNIT   11   STATUS:OLD    
 FORMAT:FORMATTED              ACCESS:SEQUENTIAL          

 OPENING my_model.bas
 FILE TYPE:BAS6   UNIT   13   STATUS:OLD    
 FORMAT:FORMATTED              ACCESS:SEQUENTIAL          

 OPENING my_model.lpf
 FILE TYPE:LPF   UNIT   15   STATUS:OLD    
 FORMAT:FORMATTED              ACCESS:SEQUENTIAL          

 OPENING my_model.rch
 FILE TYPE:RCH   UNIT   19   STATUS:OLD    
 FORMAT:FORMATTED              ACCESS:SEQUENTIAL          

 OPENING my_model.riv
 FILE TYPE:RIV   UNIT   18   STATUS:OLD    
 FORMAT:FORMATTED              ACCESS:SEQUENTIAL          

 OPENING my_model.oc
 FILE TYPE:OC   UNIT   14   STATUS:OLD    
 FORMAT:FORMATTED              ACCESS:SEQUENTIAL          

 OPENING my_model.pcg
 FILE TYPE:PCG   UNIT   27   STATUS:OLD    
 FORMAT:FORMATTED              ACCESS:SEQUENTIAL          

 OPENING my_model.cbc
 FILE TYPE:DATA(BINARY)   UNIT    1   STATUS:REPLACE
 FORMAT:BINARY                 ACCESS:SEQUENTIAL          

 OPENING my_model.hds
 FILE TYPE:DATA(BINARY)   UNIT   51   STATUS:REPLACE
 FORMAT:BINARY                 ACCESS:SEQUENTIAL          

 BAS -- BASIC PACKAGE, VERSION 7, 5/2/2005 INPUT READ FROM UNIT   13
 
 MODFLOW was compiled using mixed precision
 Precision of REAL variables:           6
 Precision of DOUBLE PRECISION variables:          15

 DISCRETIZATION INPUT DATA READ FROM UNIT   11
 # DIS package for  MODFLOW-2005, generated by Flopy.
    1 LAYERS       250 ROWS       390 COLUMNS
    1 STRESS PERIOD(S) IN SIMULATION
 MODEL TIME UNIT IS DAYS
 MODEL LENGTH UNIT IS FEET
  Confining bed flag for each layer:
   0

                     DELR =   1000.00    

                     DELC =   1000.00    

 TOP ELEVATION OF LAYER 1 =   0.00000    

   MODEL LAYER BOTTOM EL. =  -50.0000     FOR LAYER   1


 STRESS PERIOD     LENGTH       TIME STEPS     MULTIPLIER FOR DELT    SS FLAG
 ----------------------------------------------------------------------------
        1         1.000000          1                    1.000         SS

 STEADY-STATE SIMULATION



 
 # BAS6 package for  MODFLOW-2005, generated by Flopy.                           
 THE FREE FORMAT OPTION HAS BEEN SELECTED



                     BOUNDARY ARRAY FOR LAYER   1
 READING ON UNIT   13 WITH FORMAT: (390I10)            

 AQUIFER HEAD WILL BE SET TO  -999.99     AT ALL NO-FLOW NODES (IBOUND=0).



                       INITIAL HEAD FOR LAYER   1
 READING ON UNIT   13 WITH FORMAT: (390E15.6)          
 # OC package for  MODFLOW-2005, generated by Flopy.

 OUTPUT CONTROL IS SPECIFIED ONLY AT TIME STEPS FOR WHICH OUTPUT IS DESIRED
 COMPACT CELL-BY-CELL BUDGET FILES WILL BE WRITTEN
 AUXILIARY DATA WILL BE SAVED IN CELL-BY-CELL BUDGET FILES
 HEAD PRINT FORMAT CODE IS   0    DRAWDOWN PRINT FORMAT CODE IS   0
 HEADS WILL BE SAVED ON UNIT   51    DRAWDOWNS WILL BE SAVED ON UNIT    0

 LPF -- LAYER-PROPERTY FLOW PACKAGE, VERSION 7, 5/2/2005
         INPUT READ FROM UNIT   15
 # LPF package for  MODFLOW-2005, generated by Flopy.
 CELL-BY-CELL FLOWS WILL BE SAVED ON UNIT    1
 HEAD AT CELLS THAT CONVERT TO DRY= -1.00000E+30
 No named parameters

   LAYER FLAGS:
 LAYER       LAYTYP        LAYAVG         CHANI        LAYVKA        LAYWET
 ---------------------------------------------------------------------------
    1             1             0     1.000E+00             0             0

   INTERPRETATION OF LAYER FLAGS:
                        INTERBLOCK     HORIZONTAL    DATA IN
         LAYER TYPE   TRANSMISSIVITY   ANISOTROPY   ARRAY VKA   WETTABILITY
 LAYER      (LAYTYP)      (LAYAVG)       (CHANI)      (LAYVKA)      (LAYWET)
 ---------------------------------------------------------------------------
    1   CONVERTIBLE      HARMONIC     1.000E+00    VERTICAL K  NON-WETTABLE

 WETTING CAPABILITY IS NOT ACTIVE IN ANY LAYER



              HYD. COND. ALONG ROWS FOR LAYER   1
 READING ON UNIT   15 WITH FORMAT: (390E15.6)          



                VERTICAL HYD. COND. FOR LAYER   1
 READING ON UNIT   15 WITH FORMAT: (390E15.6)          

 RIV -- RIVER PACKAGE, VERSION 7, 5/2/2005 INPUT READ FROM UNIT   18
 # RIV package for  MODFLOW-2005, generated by Flopy.
 No named parameters
 MAXIMUM OF  10660 ACTIVE RIVER REACHES AT ONE TIME


     0 River parameters

 RCH -- RECHARGE PACKAGE, VERSION 7, 5/2/2005 INPUT READ FROM UNIT   19
 # RCH package for  MODFLOW-2005, generated by Flopy.
 No named parameters
 OPTION 3 -- RECHARGE TO HIGHEST ACTIVE NODE IN EACH VERTICAL COLUMN


     0 Recharge parameters

 PCG -- CONJUGATE-GRADIENT SOLUTION PACKAGE, VERSION 7, 5/2/2005
 # PCG package for  MODFLOW-2005, generated by Flopy.
 MAXIMUM OF     50 CALLS OF SOLUTION ROUTINE
 MAXIMUM OF     30 INTERNAL ITERATIONS PER CALL TO SOLUTION ROUTINE
 MATRIX PRECONDITIONING TYPE :    1



                                    SOLUTION BY THE CONJUGATE-GRADIENT METHOD
                                   -------------------------------------------
                    MAXIMUM NUMBER OF CALLS TO PCG ROUTINE =       50
                        MAXIMUM ITERATIONS PER CALL TO PCG =       30
                               MATRIX PRECONDITIONING TYPE =        1
        RELAXATION FACTOR (ONLY USED WITH PRECOND. TYPE 1) =    0.10000E+01
 PARAMETER OF POLYNOMIAL PRECOND. = 2 (2) OR IS CALCULATED :        0
                         HEAD CHANGE CRITERION FOR CLOSURE =    0.10000E-04
                     RESIDUAL CHANGE CRITERION FOR CLOSURE =    0.10000E-04
            PCG HEAD AND RESIDUAL CHANGE PRINTOUT INTERVAL =      999
     PRINTING FROM SOLVER IS LIMITED(1) OR SUPPRESSED (>1) =        3
                            STEADY-STATE DAMPING PARAMETER =    0.10000E+01
                               TRANSIENT DAMPING PARAMETER =    0.10000E+01
1
                            STRESS PERIOD NO.    1, LENGTH =   1.000000    
                            -----------------------------------------------

                              NUMBER OF TIME STEPS =     1

                               MULTIPLIER FOR DELT =     1.000

                            INITIAL TIME STEP SIZE =   1.000000    

 REACH NO.  LAYER   ROW   COL     STAGE      CONDUCTANCE     BOTTOM EL.         
 -------------------------------------------------------------------------------
      1      1      1    194       602.3           5000.           599.3    
      2      1      1    194       600.9           5000.           597.9    
      3      1      1    195       599.7           5000.           596.7    
      4      1      1    195       604.3           5000.           601.3    
      5      1      1    248       446.6           5000.           443.6    
      6      1      1    249       445.8           5000.           442.8    
      7      1      1    249       446.8           5000.           443.8    
      8      1      1    259       445.8           5000.           442.8    
      9      1      1    259       445.8           5000.           442.8    
     10      1      1    260       453.5           5000.           450.5    
     11      1      1    269       461.4           5000.           458.4    
     12      1      1    270       454.0           5000.           451.0    
     13      1      1    271       455.1           5000.           452.1    
     14      1      1    272       455.0           5000.           452.0    
     15      1      1    272       455.0           5000.           452.0    
     16      1      1    273       463.7           5000.           460.7    
     17      1      1    285       504.8           5000.           501.8    
     18      1      1    286       506.6           5000.           503.6    
     19      1      1    287       507.2           5000.           504.2    
     20      1      1    287       510.1           5000.           507.1    
     21      1      1    288       510.4           5000.           507.4    
     22      1      1    289       512.4           5000.           509.4    
     23      1      1    289       520.3           5000.           517.3    
     24      1      1    324       745.6           5000.           742.6    
     25      1      1    359       648.3           5000.           645.3    
     26      1      1    360       648.3           5000.           645.3    
     27      1      1    360       648.3           5000.           645.3    
     28      1      1    361       648.3           5000.           645.3    
     29      1      1    362       648.3           5000.           645.3    
     30      1      1    362       648.3           5000.           645.3    
     31      1      1    369       669.0           5000.           666.0    
     32      1      1    372       627.7           5000.           624.7    
     33      1      1    372       627.9           5000.           624.9    
     34      1      1    375       628.4           5000.           625.4    
     35      1      1    375       628.4           5000.           625.4    
     36      1      2    194       595.0           5000.           592.0    
     37      1      2    195       598.0           5000.           595.0    
     38      1      2    249       445.8           5000.           442.8    
     39      1      2    259       445.8           5000.           442.8    
     40      1      2    269       463.2           5000.           460.2    
     41      1      2    273       467.8           5000.           464.8    
     42      1      2    289       514.4           5000.           511.4    
     43      1      2    289       521.9           5000.           518.9    
     44      1      2    290       529.8           5000.           526.8    
     45      1      2    324       744.7           5000.           741.7    
     46      1      2    324       745.5           5000.           742.5    
     47      1      2    362       648.0           5000.           645.0    
     48      1      2    369       659.4           5000.           656.4    
     49      1      2    370       627.7           5000.           624.7    
     50      1      2    371       627.8           5000.           624.8    
     51      1      2    372       628.7           5000.           625.7    
     52      1      2    372       627.7           5000.           624.7    
     53      1      2    374       628.4           5000.           625.4    
     54      1      2    375       628.4           5000.           625.4    
     55      1      2    375       628.4           5000.           625.4    
     56      1      2    376       628.4           5000.           625.4    
     57      1      2    194       590.2           5000.           587.2    
     58      1      2    194       594.9           5000.           591.9    
     59      1      2    249       445.8           5000.           442.8    
     60      1      2    259       445.8           5000.           442.8    
     61      1      2    269       474.5           5000.           471.5    
     62      1      2    289       521.1           5000.           518.1    
     63      1      2    290       523.5           5000.           520.5    
     64      1      2    290       529.2           5000.           526.2    
     65      1      2    324       741.7           5000.           738.7    
     66      1      2    362       648.0           5000.           645.0    
     67      1      2    363       647.6           5000.           644.6    
     68      1      2    369       644.0           5000.           641.0    
     69      1      2    369       640.9           5000.           637.9    
     70      1      2    370       627.8           5000.           624.8    
     71      1      2    370       628.2           5000.           625.2    
     72      1      2    372       627.7           5000.           624.7    
     73      1      2    374       628.4           5000.           625.4    
     74      1      2    375       628.4           5000.           625.4    
     75      1      2    375       628.4           5000.           625.4    
     76      1      2    376       628.4           5000.           625.4    
     77      1      2    377       628.8           5000.           625.8    
     78      1      2    377       628.8           5000.           625.8    
     79      1      2    378       628.8           5000.           625.8    
     80      1      2    386       714.2           5000.           711.2    
     81      1      3    194       586.4           5000.           583.4    
     82      1      3    249       445.8           5000.           442.8    
     83      1      3    259       445.8           5000.           442.8    
     84      1      3    269       475.2           5000.           472.2    
     85      1      3    270       481.1           5000.           478.1    
     86      1      3    290       553.4           5000.           550.4    
     87      1      3    324       739.9           5000.           736.9    
     88      1      3    362       647.6           5000.           644.6    
     89      1      3    363       647.6           5000.           644.6    
     90      1      3    369       632.8           5000.           629.8    
     91      1      3    370       627.1           5000.           624.1    
     92      1      3    370       627.1           5000.           624.1    
     93      1      3    372       627.7           5000.           624.7    
     94      1      3    374       628.2           5000.           625.2    
     95      1      3    374       628.2           5000.           625.2    
     96      1      3    378       628.8           5000.           625.8    
     97      1      3    388       638.6           5000.           635.6    
     98      1      3    389       638.6           5000.           635.6    
     99      1      4    194       584.3           5000.           581.3    
    100      1      4    249       445.8           5000.           442.8    
    101      1      4    257       445.8           5000.           442.8    
    102      1      4    259       445.8           5000.           442.8    
    103      1      4    324       738.9           5000.           735.9    
    104      1      4    325       738.9           5000.           735.9    
    105      1      4    361       641.3           5000.           638.3    
    106      1      4    362       638.5           5000.           635.5    
    107      1      4    362       645.9           5000.           642.9    
    108      1      4    364       665.6           5000.           662.6    
    109      1      4    370       626.7           5000.           623.7    
    110      1      4    370       626.2           5000.           623.2    
    111      1      4    371       627.3           5000.           624.3    
    112      1      4    372       627.7           5000.           624.7    
    113      1      4    374       628.2           5000.           625.2    
    114      1      4    378       628.8           5000.           625.8    
    115      1      4    379       628.8           5000.           625.8    
    116      1      4    379       628.8           5000.           625.8    
    117      1      4    388       638.6           5000.           635.6    
    118      1      4    389       638.9           5000.           635.9    
    119      1      4    389       638.6           5000.           635.6    
    120      1      4    194       577.9           5000.           574.9    
    121      1      4    249       449.6           5000.           446.6    
    122      1      4    250       445.8           5000.           442.8    
    123      1      4    256       445.8           5000.           442.8    
    124      1      4    257       445.8           5000.           442.8    
    125      1      4    257       445.8           5000.           442.8    
    126      1      4    258       446.6           5000.           443.6    
    127      1      4    259       445.8           5000.           442.8    
    128      1      4    259       445.8           5000.           442.8    
    129      1      4    324       741.8           5000.           738.8    
    130      1      4    325       737.9           5000.           734.9    
    131      1      4    325       737.9           5000.           734.9    
    132      1      4    360       637.3           5000.           634.3    
    133      1      4    361       638.1           5000.           635.1    
    134      1      4    364       645.5           5000.           642.5    
    135      1      4    371       623.7           5000.           620.7    
    136      1      4    373       627.7           5000.           624.7    
    137      1      4    374       628.2           5000.           625.2    
    138      1      4    379       628.8           5000.           625.8    
    139      1      4    380       628.8           5000.           625.8    
    140      1      4    387       638.6           5000.           635.6    
    141      1      4    389       638.6           5000.           635.6    
    142      1      4    390       638.6           5000.           635.6    
    143      1      4    390       638.6           5000.           635.6    
    144      1      5    193       575.6           5000.           572.6    
    145      1      5    194       576.7           5000.           573.7    
    146      1      5    249       457.4           5000.           454.4    
    147      1      5    249       456.1           5000.           453.1    
    148      1      5    250       445.8           5000.           442.8    
    149      1      5    250       445.8           5000.           442.8    
    150      1      5    251       445.8           5000.           442.8    
    151      1      5    252       445.8           5000.           442.8    
    152      1      5    252       445.8           5000.           442.8    
    153      1      5    253       447.3           5000.           444.3    
    154      1      5    254       445.8           5000.           442.8    
    155      1      5    254       445.8           5000.           442.8    
    156      1      5    255       445.8           5000.           442.8    
    157      1      5    255       445.8           5000.           442.8    
    158      1      5    256       445.8           5000.           442.8    
    159      1      5    258       445.8           5000.           442.8    
    160      1      5    259       445.8           5000.           442.8    
    161      1      5    259       445.8           5000.           442.8    
    162      1      5    260       445.8           5000.           442.8    
    163      1      5    324       747.2           5000.           744.2    
    164      1      5    324       744.2           5000.           741.2    
    165      1      5    325       738.4           5000.           735.4    
    166      1      5    325       737.9           5000.           734.9    
    167      1      5    360       636.8           5000.           633.8    
    168      1      5    363       634.5           5000.           631.5    
    169      1      5    364       632.0           5000.           629.0    
    170      1      5    370       619.0           5000.           616.0    
    171      1      5    371       620.3           5000.           617.3    
    172      1      5    380       628.8           5000.           625.8    
    173      1      5    380       628.8           5000.           625.8    
    174      1      5    385       638.6           5000.           635.6    
    175      1      5    386       638.6           5000.           635.6    
    176      1      5    387       638.6           5000.           635.6    
    177      1      5    387       638.6           5000.           635.6    
    178      1      5    390       638.6           5000.           635.6    
    179      1      5    192       573.1           5000.           570.1    
    180      1      5    193       575.6           5000.           572.6    
    181      1      5    253       445.8           5000.           442.8    
    182      1      5    254       449.1           5000.           446.1    
    183      1      5    260       445.8           5000.           442.8    
    184      1      5    324       748.8           5000.           745.8    
    185      1      5    324       748.6           5000.           745.6    
    186      1      5    325       737.1           5000.           734.1    
    187      1      5    360       636.5           5000.           633.5    
    188      1      5    361       637.0           5000.           634.0    
    189      1      5    362       636.8           5000.           633.8    
    190      1      5    362       632.9           5000.           629.9    
    191      1      5    363       634.3           5000.           631.3    
    192      1      5    364       630.9           5000.           627.9    
    193      1      5    364       628.5           5000.           625.5    
    194      1      5    370       619.0           5000.           616.0    
    195      1      5    370       619.0           5000.           616.0    
    196      1      5    380       628.8           5000.           625.8    
    197      1      5    381       628.8           5000.           625.8    
    198      1      5    382       628.8           5000.           625.8    
    199      1      5    382       628.8           5000.           625.8    
    200      1      5    383       628.8           5000.           625.8    
    201      1      5    385       638.6           5000.           635.6    
    202      1      6    192       570.4           5000.           567.4    
    203      1      6    260       445.8           5000.           442.8    
    204      1      6    324       755.7           5000.           752.7    
    205      1      6    325       729.4           5000.           726.4    
    206      1      6    326       728.6           5000.           725.6    
    207      1      6    327       731.7           5000.           728.7    
    208      1      6    362       635.0           5000.           632.0    
    209      1      6    362       633.2           5000.           630.2    
    210      1      6    364       627.8           5000.           624.8    
    211      1      6    365       627.3           5000.           624.3    
    212      1      6    366       632.3           5000.           629.3    
    213      1      6    367       643.1           5000.           640.1    
    214      1      6    369       619.0           5000.           616.0    
    215      1      6    369       619.0           5000.           616.0    
    216      1      6    370       619.0           5000.           616.0    
    217      1      6    382       628.8           5000.           625.8    
    218      1      6    382       628.8           5000.           625.8    
    219      1      6    383       628.8           5000.           625.8    
    220      1      6    384       628.8           5000.           625.8    
    221      1      6    385       638.6           5000.           635.6    
    222      1      7    192       568.3           5000.           565.3    
    223      1      7    260       445.8           5000.           442.8    
    224      1      7    324       759.0           5000.           756.0    
    225      1      7    326       727.9           5000.           724.9    
    226      1      7    327       730.0           5000.           727.0    
    227      1      7    362       636.2           5000.           633.2    
    228      1      7    365       626.7           5000.           623.7    
    229      1      7    365       626.1           5000.           623.1    
    230      1      7    366       625.5           5000.           622.5    
    231      1      7    368       619.0           5000.           616.0    
    232      1      7    369       619.0           5000.           616.0    
    233      1      7    382       633.1           5000.           630.1    
    234      1      7    384       628.8           5000.           625.8    
    235      1      7    385       638.6           5000.           635.6    
    236      1      7    386       638.6           5000.           635.6    
    237      1      7    192       566.7           5000.           563.7    
    238      1      7    259       445.8           5000.           442.8    
    239      1      7    260       445.8           5000.           442.8    
    240      1      7    325       742.6           5000.           739.6    
    241      1      7    325       733.3           5000.           730.3    
    242      1      7    326       726.7           5000.           723.7    
    243      1      7    327       725.0           5000.           722.0    
    244      1      7    361       638.5           5000.           635.5    
    245      1      7    362       638.6           5000.           635.6    
    246      1      7    366       624.7           5000.           621.7    
    247      1      7    368       619.0           5000.           616.0    
    248      1      7    369       619.0           5000.           616.0    
    249      1      7    382       639.3           5000.           636.3    
    250      1      7    382       628.8           5000.           625.8    
    251      1      7    383       628.8           5000.           625.8    
    252      1      7    384       628.8           5000.           625.8    
    253      1      7    386       638.6           5000.           635.6    
    254      1      7    389       638.6           5000.           635.6    
    255      1      7    389       638.6           5000.           635.6    
    256      1      8    191       576.5           5000.           573.5    
    257      1      8    192       564.7           5000.           561.7    
    258      1      8    259       445.8           5000.           442.8    
    259      1      8    324       755.7           5000.           752.7    
    260      1      8    324       750.0           5000.           747.0    
    261      1      8    325       741.7           5000.           738.7    
    262      1      8    327       720.9           5000.           717.9    
    263      1      8    361       641.5           5000.           638.5    
    264      1      8    366       624.0           5000.           621.0    
    265      1      8    367       619.0           5000.           616.0    
    266      1      8    368       619.0           5000.           616.0    
    267      1      8    369       619.0           5000.           616.0    
    268      1      8    381       651.0           5000.           648.0    
    269      1      8    382       646.1           5000.           643.1    
    270      1      8    382       628.8           5000.           625.8    
    271      1      8    383       632.4           5000.           629.4    
    272      1      8    386       638.6           5000.           635.6    
    273      1      8    388       638.6           5000.           635.6    
    274      1      8    389       638.6           5000.           635.6    
    275      1      8    389       638.6           5000.           635.6    
    276      1      8    390       643.0           5000.           640.0    
    277      1      9    191       574.2           5000.           571.2    
    278      1      9    192       563.5           5000.           560.5    
    279      1      9    192       565.7           5000.           562.7    
    280      1      9    225       537.9           5000.           534.9    
    281      1      9    259       445.8           5000.           442.8    
    282      1      9    259       445.8           5000.           442.8    
    283      1      9    327       720.2           5000.           717.2    
    284      1      9    366       622.6           5000.           619.6    
    285      1      9    367       619.0           5000.           616.0    
    286      1      9    367       619.0           5000.           616.0    
    287      1      9    368       619.0           5000.           616.0    
    288      1      9    369       619.0           5000.           616.0    
    289      1      9    369       622.8           5000.           619.8    
    290      1      9    370       623.3           5000.           620.3    
    291      1      9    370       636.3           5000.           633.3    
    292      1      9    381       662.4           5000.           659.4    
    293      1      9    383       634.5           5000.           631.5    
    294      1      9    386       638.6           5000.           635.6    
    295      1      9    387       638.6           5000.           635.6    
    296      1      9    388       638.6           5000.           635.6    
    297      1      9    390       645.6           5000.           642.6    
    298      1      9    390       647.2           5000.           644.2    
    299      1      9    192       562.1           5000.           559.1    
    300      1      9    224       537.2           5000.           534.2    
    301      1      9    225       535.1           5000.           532.1    
    302      1      9    259       445.8           5000.           442.8    
    303      1      9    326       732.5           5000.           729.5    
    304      1      9    327       725.7           5000.           722.7    
    305      1      9    327       718.5           5000.           715.5    
    306      1      9    365       621.7           5000.           618.7    
    307      1      9    366       621.7           5000.           618.7    
    308      1      9    367       619.0           5000.           616.0    
    309      1      9    368       619.0           5000.           616.0    
    310      1      9    369       619.0           5000.           616.0    
    311      1      9    369       619.0           5000.           616.0    
    312      1      9    381       672.0           5000.           669.0    
    313      1      9    383       634.4           5000.           631.4    
    314      1      9    386       638.0           5000.           635.0    
    315      1      9    387       638.2           5000.           635.2    
    316      1      9    387       638.6           5000.           635.6    
    317      1      9    388       638.6           5000.           635.6    
    318      1      9    390       659.4           5000.           656.4    
    319      1     10    192       561.7           5000.           558.7    
    320      1     10    224       537.5           5000.           534.5    
    321      1     10    224       533.4           5000.           530.4    
    322      1     10    225       532.3           5000.           529.3    
    323      1     10    258       445.8           5000.           442.8    
    324      1     10    259       445.8           5000.           442.8    
    325      1     10    327       718.5           5000.           715.5    
    326      1     10    364       619.4           5000.           616.4    
    327      1     10    365       620.3           5000.           617.3    
    328      1     10    365       621.3           5000.           618.3    
    329      1     10    366       619.0           5000.           616.0    
    330      1     10    367       619.0           5000.           616.0    
    331      1     10    381       685.0           5000.           682.0    
    332      1     10    383       635.8           5000.           632.8    
    333      1     10    384       637.3           5000.           634.3    
    334      1     10    385       638.0           5000.           635.0    
    335      1     10    385       638.3           5000.           635.3    
    336      1     10    386       638.0           5000.           635.0    
    337      1     10    387       638.2           5000.           635.2    
    338      1     10    387       638.3           5000.           635.3    
    339      1     10    388       638.2           5000.           635.2    
    340      1     10    192       559.7           5000.           556.7    
    341      1     10    192       558.1           5000.           555.1    
    342      1     10    225       530.0           5000.           527.0    
    343      1     10    258       445.8           5000.           442.8    
    344      1     10    327       718.5           5000.           715.5    
    345      1     10    364       619.0           5000.           616.0    
    346      1     10    364       619.0           5000.           616.0    
    347      1     10    366       619.0           5000.           616.0    
    348      1     10    367       619.6           5000.           616.6    
    349      1     10    367       622.6           5000.           619.6    
    350      1     10    381       698.5           5000.           695.5    
    351      1     10    384       637.5           5000.           634.5    
    352      1     10    384       638.0           5000.           635.0    
    353      1     10    385       638.0           5000.           635.0    
    354      1     10    386       638.0           5000.           635.0    
    355      1     10    387       645.4           5000.           642.4    
    356      1     10    388       642.6           5000.           639.6    
    357      1     10    389       644.0           5000.           641.0    
    358      1     10    389       646.3           5000.           643.3    
    359      1     11    192       558.9           5000.           555.9    
    360      1     11    193       558.0           5000.           555.0    
    361      1     11    195       569.4           5000.           566.4    
    362      1     11    225       529.8           5000.           526.8    
    363      1     11    257       445.8           5000.           442.8    
    364      1     11    258       445.8           5000.           442.8    
    365      1     11    327       718.5           5000.           715.5    
    366      1     11    328       718.5           5000.           715.5    
    367      1     11    329       718.5           5000.           715.5    
    368      1     11    364       619.0           5000.           616.0    
    369      1     11    364       619.0           5000.           616.0    
    370      1     11    366       619.0           5000.           616.0    
    371      1     11    367       619.5           5000.           616.5    
    372      1     11    367       626.4           5000.           623.4    
    373      1     11    368       628.1           5000.           625.1    
    374      1     12    193       555.1           5000.           552.1    
    375      1     12    194       556.7           5000.           553.7    
    376      1     12    195       562.8           5000.           559.8    
    377      1     12    225       527.2           5000.           524.2    
    378      1     12    225       526.8           5000.           523.8    
    379      1     12    254       446.6           5000.           443.6    
    380      1     12    254       446.6           5000.           443.6    
    381      1     12    255       446.6           5000.           443.6    
    382      1     12    255       446.6           5000.           443.6    
    383      1     12    256       445.8           5000.           442.8    
    384      1     12    257       445.8           5000.           442.8    
    385      1     12    257       445.8           5000.           442.8    
    386      1     12    326       730.4           5000.           727.4    
    387      1     12    327       726.7           5000.           723.7    
    388      1     12    327       726.7           5000.           723.7    
    389      1     12    329       718.5           5000.           715.5    
    390      1     12    363       619.1           5000.           616.1    
    391      1     12    364       619.0           5000.           616.0    
    392      1     12    365       619.0           5000.           616.0    
    393      1     12    366       619.0           5000.           616.0    
    394      1     12    193       553.7           5000.           550.7    
    395      1     12    194       552.7           5000.           549.7    
    396      1     12    194       560.8           5000.           557.8    
    397      1     12    225       529.7           5000.           526.7    
    398      1     12    226       522.8           5000.           519.8    
    399      1     12    256       445.8           5000.           442.8    
    400      1     12    257       445.8           5000.           442.8    
    401      1     12    257       445.8           5000.           442.8    
    402      1     12    258       454.5           5000.           451.5    
    403      1     12    327       718.7           5000.           715.7    
    404      1     12    328       718.1           5000.           715.1    
    405      1     12    329       718.1           5000.           715.1    
    406      1     12    363       619.0           5000.           616.0    
    407      1     12    365       619.0           5000.           616.0    
    408      1     12    365       619.0           5000.           616.0    
    409      1     13    194       551.7           5000.           548.7    
    410      1     13    194       551.7           5000.           548.7    
    411      1     13    226       518.8           5000.           515.8    
    412      1     13    255       445.8           5000.           442.8    
    413      1     13    256       445.8           5000.           442.8    
    414      1     13    257       452.5           5000.           449.5    
    415      1     13    258       453.0           5000.           450.0    
    416      1     13    327       718.6           5000.           715.6    
    417      1     13    328       718.1           5000.           715.1    
    418      1     13    362       619.0           5000.           616.0    
    419      1     13    363       619.0           5000.           616.0    
    420      1     13    365       619.0           5000.           616.0    
    421      1     14    194       548.0           5000.           545.0    
    422      1     14    195       547.6           5000.           544.6    
    423      1     14    224       562.2           5000.           559.2    
    424      1     14    224       542.3           5000.           539.3    
    425      1     14    226       517.7           5000.           514.7    
    426      1     14    251       445.8           5000.           442.8    
    427      1     14    255       445.8           5000.           442.8    
    428      1     14    255       445.8           5000.           442.8    
    429      1     14    326       731.3           5000.           728.3    
    430      1     14    327       724.4           5000.           721.4    
    431      1     14    327       718.7           5000.           715.7    
    432      1     14    328       718.0           5000.           715.0    
    433      1     14    329       709.8           5000.           706.8    
    434      1     14    332       708.7           5000.           705.7    
    435      1     14    332       708.9           5000.           705.9    
    436      1     14    333       708.7           5000.           705.7    
    437      1     14    360       631.1           5000.           628.1    
    438      1     14    361       631.1           5000.           628.1    
    439      1     14    362       619.0           5000.           616.0    
    440      1     14    365       619.0           5000.           616.0    
    441      1     14    195       546.4           5000.           543.4    
    442      1     14    195       544.1           5000.           541.1    
    443      1     14    196       542.8           5000.           539.8    
    444      1     14    224       527.0           5000.           524.0    
    445      1     14    225       521.9           5000.           518.9    
    446      1     14    225       523.5           5000.           520.5    
    447      1     14    226       517.3           5000.           514.3    
    448      1     14    251       445.8           5000.           442.8    
    449      1     14    254       445.8           5000.           442.8    
    450      1     14    255       445.8           5000.           442.8    
    451      1     14    329       709.8           5000.           706.8    
    452      1     14    329       709.8           5000.           706.8    
    453      1     14    331       708.7           5000.           705.7    
    454      1     14    332       708.7           5000.           705.7    
    455      1     14    361       621.9           5000.           618.9    
    456      1     14    362       619.1           5000.           616.1    
    457      1     14    365       619.0           5000.           616.0    
    458      1     15    196       554.5           5000.           551.5    
    459      1     15    197       538.7           5000.           535.7    
    460      1     15    225       516.5           5000.           513.5    
    461      1     15    226       516.1           5000.           513.1    
    462      1     15    251       445.8           5000.           442.8    
    463      1     15    254       445.8           5000.           442.8    
    464      1     15    254       445.8           5000.           442.8    
    465      1     15    327       733.4           5000.           730.4    
    466      1     15    327       723.7           5000.           720.7    
    467      1     15    328       719.3           5000.           716.3    
    468      1     15    329       711.7           5000.           708.7    
    469      1     15    329       709.8           5000.           706.8    
    470      1     15    330       709.8           5000.           706.8    
    471      1     15    330       709.8           5000.           706.8    
    472      1     15    331       708.7           5000.           705.7    
    473      1     15    359       608.5           5000.           605.5    
    474      1     15    359       608.5           5000.           605.5    
    475      1     15    360       608.5           5000.           605.5    
    476      1     15    360       617.2           5000.           614.2    
    477      1     15    361       617.2           5000.           614.2    
    478      1     15    362       619.0           5000.           616.0    
    479      1     15    363       619.0           5000.           616.0    
    480      1     15    365       619.0           5000.           616.0    
    481      1     15    197       538.7           5000.           535.7    
    482      1     15    197       538.4           5000.           535.4    
    483      1     15    225       512.6           5000.           509.6    
    484      1     15    226       516.1           5000.           513.1    
    485      1     15    251       446.6           5000.           443.6    
    486      1     15    253       445.8           5000.           442.8    
    487      1     15    254       445.8           5000.           442.8    
    488      1     15    326       748.6           5000.           745.6    
    489      1     15    327       736.7           5000.           733.7    
    490      1     15    329       719.6           5000.           716.6    
    491      1     15    330       709.5           5000.           706.5    
    492      1     15    331       708.8           5000.           705.8    
    493      1     15    358       608.5           5000.           605.5    
    494      1     15    359       608.5           5000.           605.5    
    495      1     15    360       615.2           5000.           612.2    
    496      1     15    360       617.1           5000.           614.1    
    497      1     15    361       619.0           5000.           616.0    
    498      1     15    362       619.0           5000.           616.0    
    499      1     15    363       619.0           5000.           616.0    
    500      1     15    364       619.0           5000.           616.0    
    501      1     15    364       619.0           5000.           616.0    
    502      1     15    365       619.0           5000.           616.0    
    503      1     15    365       621.0           5000.           618.0    
    504      1     16    197       538.3           5000.           535.3    
    505      1     16    198       538.2           5000.           535.2    
    506      1     16    225       506.0           5000.           503.0    
    507      1     16    253       445.8           5000.           442.8    
    508      1     16    329       719.6           5000.           716.6    
    509      1     16    331       706.6           5000.           703.6    
    510      1     16    357       608.5           5000.           605.5    
    511      1     16    358       608.5           5000.           605.5    
    512      1     16    361       619.0           5000.           616.0    
    513      1     16    362       619.0           5000.           616.0    
    514      1     16    362       619.0           5000.           616.0    
    515      1     17    198       538.1           5000.           535.1    
    516      1     17    225       504.4           5000.           501.4    
    517      1     17    226       500.7           5000.           497.7    
    518      1     17    252       445.8           5000.           442.8    
    519      1     17    253       445.8           5000.           442.8    
    520      1     17    329       727.3           5000.           724.3    
    521      1     17    331       698.7           5000.           695.7    
    522      1     17    333       720.8           5000.           717.8    
    523      1     17    357       608.5           5000.           605.5    
    524      1     17    198       537.7           5000.           534.7    
    525      1     17    225       498.0           5000.           495.0    
    526      1     17    226       498.4           5000.           495.4    
    527      1     17    252       445.8           5000.           442.8    
    528      1     17    252       445.8           5000.           442.8    
    529      1     17    330       698.6           5000.           695.6    
    530      1     17    331       698.7           5000.           695.7    
    531      1     17    333       716.8           5000.           713.8    
    532      1     17    358       608.5           5000.           605.5    
    533      1     18    198       536.4           5000.           533.4    
    534      1     18    225       497.5           5000.           494.5    
    535      1     18    251       445.8           5000.           442.8    
    536      1     18    252       445.8           5000.           442.8    
    537      1     18    330       698.6           5000.           695.6    
    538      1     18    330       698.7           5000.           695.7    
    539      1     18    331       705.5           5000.           702.5    
    540      1     18    332       710.3           5000.           707.3    
    541      1     18    332       713.8           5000.           710.8    
    542      1     18    333       716.6           5000.           713.6    
    543      1     18    358       622.2           5000.           619.2    
    544      1     18    359       608.5           5000.           605.5    
    545      1     18    359       608.5           5000.           605.5    
    546      1     19    198       535.0           5000.           532.0    
    547      1     19    205       551.6           5000.           548.6    
    548      1     19    205       551.6           5000.           548.6    
    549      1     19    206       551.6           5000.           548.6    
    550      1     19    225       497.3           5000.           494.3    
    551      1     19    226       496.9           5000.           493.9    
    552      1     19    249       445.8           5000.           442.8    
    553      1     19    249       445.8           5000.           442.8    
    554      1     19    250       445.8           5000.           442.8    
    555      1     19    250       445.8           5000.           442.8    
    556      1     19    251       445.8           5000.           442.8    
    557      1     19    252       445.8           5000.           442.8    
    558      1     19    252       445.8           5000.           442.8    
    559      1     19    330       698.6           5000.           695.6    
    560      1     19    359       608.5           5000.           605.5    
    561      1     19    360       610.9           5000.           607.9    
    562      1     19    360       618.0           5000.           615.0    
    563      1     19    198       533.4           5000.           530.4    
    564      1     19    206       549.8           5000.           546.8    
    565      1     19    226       502.7           5000.           499.7    
    566      1     19    227       495.5           5000.           492.5    
    567      1     19    249       445.8           5000.           442.8    
    568      1     19    249       445.8           5000.           442.8    
    569      1     19    250       445.8           5000.           442.8    
    570      1     19    250       445.8           5000.           442.8    
    571      1     19    252       445.8           5000.           442.8    
    572      1     19    253       445.8           5000.           442.8    
    573      1     19    254       446.6           5000.           443.6    
    574      1     19    330       698.5           5000.           695.5    
    575      1     19    359       608.5           5000.           605.5    
    576      1     20    198       532.4           5000.           529.4    
    577      1     20    206       549.7           5000.           546.7    
    578      1     20    227       489.5           5000.           486.5    
    579      1     20    249       445.8           5000.           442.8    
    580      1     20    249       445.8           5000.           442.8    
    581      1     20    250       445.8           5000.           442.8    
    582      1     20    254       447.7           5000.           444.7    
    583      1     20    254       447.5           5000.           444.5    
    584      1     20    329       698.9           5000.           695.9    
    585      1     20    330       698.5           5000.           695.5    
    586      1     20    359       608.5           5000.           605.5    
    587      1     20    359       608.5           5000.           605.5    
    588      1     20    198       530.9           5000.           527.9    
    589      1     20    206       549.6           5000.           546.6    
    590      1     20    226       487.7           5000.           484.7    
    591      1     20    227       488.4           5000.           485.4    
    592      1     20    249       445.8           5000.           442.8    
    593      1     20    254       451.2           5000.           448.2    
    594      1     20    255       451.3           5000.           448.3    
    595      1     20    329       701.8           5000.           698.8    
    596      1     20    329       698.7           5000.           695.7    
    597      1     20    359       608.5           5000.           605.5    
    598      1     21    198       528.8           5000.           525.8    
    599      1     21    206       548.5           5000.           545.5    
    600      1     21    226       486.0           5000.           483.0    
    601      1     21    249       445.8           5000.           442.8    
    602      1     21    249       445.8           5000.           442.8    
    603      1     21    255       449.3           5000.           446.3    
    604      1     21    255       456.8           5000.           453.8    
    605      1     21    329       698.0           5000.           695.0    
    606      1     21    329       698.2           5000.           695.2    
    607      1     21    354       631.1           5000.           628.1    
    608      1     21    358       608.5           5000.           605.5    
    609      1     21    359       608.5           5000.           605.5    
    610      1     21    372       700.2           5000.           697.2    
    611      1     21    373       699.2           5000.           696.2    
    612      1     21    375       708.2           5000.           705.2    
    613      1     21    376       709.9           5000.           706.9    
    614      1     22    198       527.0           5000.           524.0    
    615      1     22    206       546.3           5000.           543.3    
    616      1     22    207       549.5           5000.           546.5    
    617      1     22    207       553.0           5000.           550.0    
    618      1     22    208       554.9           5000.           551.9    
    619      1     22    224       551.1           5000.           548.1    
    620      1     22    225       483.6           5000.           480.6    
    621      1     22    226       483.1           5000.           480.1    
    622      1     22    248       445.8           5000.           442.8    
    623      1     22    249       445.8           5000.           442.8    
    624      1     22    255       449.0           5000.           446.0    
    625      1     22    256       449.9           5000.           446.9    
    626      1     22    328       697.0           5000.           694.0    
    627      1     22    329       697.2           5000.           694.2    
    628      1     22    354       629.8           5000.           626.8    
    629      1     22    354       621.2           5000.           618.2    
    630      1     22    356       608.0           5000.           605.0    
    631      1     22    357       608.5           5000.           605.5    
    632      1     22    357       608.5           5000.           605.5    
    633      1     22    358       608.5           5000.           605.5    
    634      1     22    372       694.7           5000.           691.7    
    635      1     22    373       698.0           5000.           695.0    
    636      1     22    374       698.0           5000.           695.0    
    637      1     22    376       706.2           5000.           703.2    
    638      1     22    197       525.2           5000.           522.2    
    639      1     22    198       526.3           5000.           523.3    
    640      1     22    205       542.1           5000.           539.1    
    641      1     22    205       545.2           5000.           542.2    
    642      1     22    206       545.6           5000.           542.6    
    643      1     22    207       548.1           5000.           545.1    
    644      1     22    207       552.8           5000.           549.8    
    645      1     22    208       554.9           5000.           551.9    
    646      1     22    224       534.0           5000.           531.0    
    647      1     22    225       482.3           5000.           479.3    
    648      1     22    247       445.8           5000.           442.8    
    649      1     22    248       445.8           5000.           442.8    
    650      1     22    256       451.3           5000.           448.3    
    651      1     22    327       695.1           5000.           692.1    
    652      1     22    328       695.5           5000.           692.5    
    653      1     22    354       613.8           5000.           610.8    
    654      1     22    355       607.0           5000.           604.0    
    655      1     22    355       607.0           5000.           604.0    
    656      1     22    356       608.7           5000.           605.7    
    657      1     22    357       608.5           5000.           605.5    
    658      1     22    358       608.5           5000.           605.5    
    659      1     22    372       692.5           5000.           689.5    
    660      1     22    374       700.0           5000.           697.0    
    661      1     22    374       702.2           5000.           699.2    
    662      1     22    375       702.8           5000.           699.8    
    663      1     22    375       704.5           5000.           701.5    
    664      1     22    376       707.4           5000.           704.4    
    665      1     23    197       522.7           5000.           519.7    
    666      1     23    201       532.9           5000.           529.9    
    667      1     23    202       530.6           5000.           527.6    
    668      1     23    202       531.0           5000.           528.0    
    669      1     23    204       537.6           5000.           534.6    
    670      1     23    204       538.7           5000.           535.7    
    671      1     23    205       540.7           5000.           537.7    
    672      1     23    224       518.2           5000.           515.2    
    673      1     23    225       481.3           5000.           478.3    
    674      1     23    247       445.8           5000.           442.8    
    675      1     23    256       452.4           5000.           449.4    
    676      1     23    257       459.7           5000.           456.7    
    677      1     23    327       695.1           5000.           692.1    
    678      1     23    328       694.8           5000.           691.8    
    679      1     23    329       692.2           5000.           689.2    
    680      1     23    355       606.5           5000.           603.5    
    681      1     23    357       608.5           5000.           605.5    
    682      1     23    358       639.8           5000.           636.8    
    683      1     23    359       637.8           5000.           634.8    
    684      1     23    359       641.7           5000.           638.7    
    685      1     23    360       645.5           5000.           642.5    
    686      1     23    360       658.7           5000.           655.7    
    687      1     23    372       690.1           5000.           687.1    
    688      1     23    372       690.6           5000.           687.6    
    689      1     23    374       701.1           5000.           698.1    
    690      1     23    375       703.3           5000.           700.3    
    691      1     23    375       704.4           5000.           701.4    
    692      1     23    376       705.7           5000.           702.7    
    693      1     24    169       542.4           5000.           539.4    
    694      1     24    170       538.3           5000.           535.3    
    695      1     24    197       521.3           5000.           518.3    
    696      1     24    197       522.3           5000.           519.3    
    697      1     24    201       525.2           5000.           522.2    
    698      1     24    203       533.6           5000.           530.6    
    699      1     24    204       536.4           5000.           533.4    
    700      1     24    224       506.4           5000.           503.4    
    701      1     24    224       500.2           5000.           497.2    
    702      1     24    225       481.3           5000.           478.3    
    703      1     24    226       481.3           5000.           478.3    
    704      1     24    247       445.8           5000.           442.8    
    705      1     24    247       445.8           5000.           442.8    
    706      1     24    257       459.7           5000.           456.7    
    707      1     24    257       462.5           5000.           459.5    
    708      1     24    258       473.9           5000.           470.9    
    709      1     24    259       476.4           5000.           473.4    
    710      1     24    329       691.2           5000.           688.2    
    711      1     24    353       604.8           5000.           601.8    
    712      1     24    354       607.1           5000.           604.1    
    713      1     24    354       605.9           5000.           602.9    
    714      1     24    355       606.2           5000.           603.2    
    715      1     24    369       675.0           5000.           672.0    
    716      1     24    369       674.8           5000.           671.8    
    717      1     24    372       688.6           5000.           685.6    
    718      1     24    376       705.3           5000.           702.3    
    719      1     24    377       706.2           5000.           703.2    
    720      1     24    169       538.6           5000.           535.6    
    721      1     24    169       537.9           5000.           534.9    
    722      1     24    170       533.1           5000.           530.1    
    723      1     24    170       535.5           5000.           532.5    
    724      1     24    196       520.9           5000.           517.9    
    725      1     24    197       519.1           5000.           516.1    
    726      1     24    200       523.0           5000.           520.0    
    727      1     24    200       522.3           5000.           519.3    
    728      1     24    201       525.2           5000.           522.2    
    729      1     24    224       498.0           5000.           495.0    
    730      1     24    225       487.2           5000.           484.2    
    731      1     24    225       481.3           5000.           478.3    
    732      1     24    226       481.3           5000.           478.3    
    733      1     24    247       445.8           5000.           442.8    
    734      1     24    257       463.2           5000.           460.2    
    735      1     24    258       468.2           5000.           465.2    
    736      1     24    328       689.4           5000.           686.4    
    737      1     24    329       690.7           5000.           687.7    
    738      1     24    352       604.1           5000.           601.1    
    739      1     24    353       604.7           5000.           601.7    
    740      1     24    354       608.3           5000.           605.3    
    741      1     24    368       670.5           5000.           667.5    
    742      1     24    369       671.1           5000.           668.1    
    743      1     24    369       674.0           5000.           671.0    
    744      1     24    372       687.5           5000.           684.5    
    745      1     24    377       706.8           5000.           703.8    
    746      1     24    377       707.5           5000.           704.5    
    747      1     24    378       708.5           5000.           705.5    
    748      1     25    169       534.3           5000.           531.3    
    749      1     25    170       528.0           5000.           525.0    
    750      1     25    196       522.3           5000.           519.3    
    751      1     25    197       518.4           5000.           515.4    
    752      1     25    197       518.1           5000.           515.1    
    753      1     25    200       520.0           5000.           517.0    
    754      1     25    205       566.4           5000.           563.4    
    755      1     25    226       481.3           5000.           478.3    
    756      1     25    247       445.8           5000.           442.8    
    757      1     25    257       466.5           5000.           463.5    
    758      1     25    258       466.2           5000.           463.2    
    759      1     25    327       685.9           5000.           682.9    
    760      1     25    327       688.0           5000.           685.0    
    761      1     25    328       704.3           5000.           701.3    
    762      1     25    352       603.9           5000.           600.9    
    763      1     25    352       603.8           5000.           600.8    
    764      1     25    354       612.1           5000.           609.1    
    765      1     25    355       617.2           5000.           614.2    
    766      1     25    355       625.5           5000.           622.5    
    767      1     25    368       668.5           5000.           665.5    
    768      1     25    369       675.6           5000.           672.6    
    769      1     25    370       677.5           5000.           674.5    
    770      1     25    372       686.4           5000.           683.4    
    771      1     25    378       710.7           5000.           707.7    
    772      1     25    170       526.8           5000.           523.8    
    773      1     25    197       517.2           5000.           514.2    
    774      1     25    200       518.0           5000.           515.0    
    775      1     25    200       524.6           5000.           521.6    
    776      1     25    201       534.6           5000.           531.6    
    777      1     25    202       538.9           5000.           535.9    
    778      1     25    202       546.6           5000.           543.6    
    779      1     25    203       551.3           5000.           548.3    
    780      1     25    204       564.6           5000.           561.6    
    781      1     25    204       555.5           5000.           552.5    
    782      1     25    205       564.9           5000.           561.9    
    783      1     25    205       562.9           5000.           559.9    
    784      1     25    226       481.3           5000.           478.3    
    785      1     25    227       481.3           5000.           478.3    
    786      1     25    246       445.8           5000.           442.8    
    787      1     25    247       445.8           5000.           442.8    
    788      1     25    258       468.6           5000.           465.6    
    789      1     25    259       471.6           5000.           468.6    
    790      1     25    259       476.5           5000.           473.5    
    791      1     25    326       685.0           5000.           682.0    
    792      1     25    327       685.5           5000.           682.5    
    793      1     25    352       603.6           5000.           600.6    
    794      1     25    354       618.3           5000.           615.3    
    795      1     25    368       668.3           5000.           665.3    
    796      1     25    370       679.7           5000.           676.7    
    797      1     25    370       680.8           5000.           677.8    
    798      1     25    372       686.0           5000.           683.0    
    799      1     25    378       711.3           5000.           708.3    
    800      1     25    379       712.3           5000.           709.3    
    801      1     25    379       714.3           5000.           711.3    
    802      1     25    380       717.5           5000.           714.5    
    803      1     26    170       523.1           5000.           520.1    
    804      1     26    187       514.0           5000.           511.0    
    805      1     26    187       515.7           5000.           512.7    
    806      1     26    197       516.7           5000.           513.7    
    807      1     26    199       517.6           5000.           514.6    
    808      1     26    200       517.9           5000.           514.9    
    809      1     26    226       481.3           5000.           478.3    
    810      1     26    227       481.3           5000.           478.3    
    811      1     26    227       479.3           5000.           476.3    
    812      1     26    228       468.4           5000.           465.4    
    813      1     26    229       485.4           5000.           482.4    
    814      1     26    229       465.4           5000.           462.4    
    815      1     26    230       465.4           5000.           462.4    
    816      1     26    230       463.2           5000.           460.2    
    817      1     26    231       460.5           5000.           457.5    
    818      1     26    232       458.0           5000.           455.0    
    819      1     26    246       445.8           5000.           442.8    
    820      1     26    247       445.8           5000.           442.8    
    821      1     26    248       445.8           5000.           442.8    
    822      1     26    259       476.5           5000.           473.5    
    823      1     26    260       482.2           5000.           479.2    
    824      1     26    324       685.8           5000.           682.8    
    825      1     26    326       683.7           5000.           680.7    
    826      1     26    352       602.9           5000.           599.9    
    827      1     26    368       679.0           5000.           676.0    
    828      1     26    369       667.9           5000.           664.9    
    829      1     26    370       682.4           5000.           679.4    
    830      1     26    372       684.6           5000.           681.6    
    831      1     27    170       522.5           5000.           519.5    
    832      1     27    186       527.9           5000.           524.9    
    833      1     27    187       509.6           5000.           506.6    
    834      1     27    195       513.1           5000.           510.1    
    835      1     27    195       513.6           5000.           510.6    
    836      1     27    196       514.6           5000.           511.6    
    837      1     27    197       515.3           5000.           512.3    
    838      1     27    197       516.0           5000.           513.0    
    839      1     27    198       516.6           5000.           513.6    
    840      1     27    199       516.6           5000.           513.6    
    841      1     27    199       516.6           5000.           513.6    
    842      1     27    227       481.3           5000.           478.3    
    843      1     27    227       503.1           5000.           500.1    
    844      1     27    228       468.4           5000.           465.4    
    845      1     27    229       504.1           5000.           501.1    
    846      1     27    232       457.8           5000.           454.8    
    847      1     27    232       457.8           5000.           454.8    
    848      1     27    246       445.8           5000.           442.8    
    849      1     27    248       445.8           5000.           442.8    
    850      1     27    260       477.9           5000.           474.9    
    851      1     27    324       682.1           5000.           679.1    
    852      1     27    326       682.3           5000.           679.3    
    853      1     27    352       602.3           5000.           599.3    
    854      1     27    352       602.3           5000.           599.3    
    855      1     27    367       664.7           5000.           661.7    
    856      1     27    368       665.5           5000.           662.5    
    857      1     27    369       667.5           5000.           664.5    
    858      1     27    370       682.7           5000.           679.7    
    859      1     27    371       683.7           5000.           680.7    
    860      1     27    372       684.2           5000.           681.2    
    861      1     27    169       516.6           5000.           513.6    
    862      1     27    170       521.7           5000.           518.7    
    863      1     27    186       498.7           5000.           495.7    
    864      1     27    187       498.7           5000.           495.7    
    865      1     27    190       503.8           5000.           500.8    
    866      1     27    193       509.5           5000.           506.5    
    867      1     27    195       513.0           5000.           510.0    
    868      1     27    195       512.2           5000.           509.2    
    869      1     27    197       516.5           5000.           513.5    
    870      1     27    197       518.8           5000.           515.8    
    871      1     27    232       457.8           5000.           454.8    
    872      1     27    233       459.8           5000.           456.8    
    873      1     27    235       454.2           5000.           451.2    
    874      1     27    246       445.8           5000.           442.8    
    875      1     27    247       445.8           5000.           442.8    
    876      1     27    248       445.8           5000.           442.8    
    877      1     27    260       480.9           5000.           477.9    
    878      1     27    260       484.5           5000.           481.5    
    879      1     27    324       684.5           5000.           681.5    
    880      1     27    324       677.3           5000.           674.3    
    881      1     27    326       681.2           5000.           678.2    
    882      1     27    352       601.6           5000.           598.6    
    883      1     27    367       657.8           5000.           654.8    
    884      1     27    367       664.7           5000.           661.7    
    885      1     28    169       516.6           5000.           513.6    
    886      1     28    169       516.6           5000.           513.6    
    887      1     28    186       498.7           5000.           495.7    
    888      1     28    187       499.2           5000.           496.2    
    889      1     28    188       499.2           5000.           496.2    
    890      1     28    189       501.1           5000.           498.1    
    891      1     28    190       501.7           5000.           498.7    
    892      1     28    190       502.8           5000.           499.8    
    893      1     28    192       514.0           5000.           511.0    
    894      1     28    192       507.6           5000.           504.6    
    895      1     28    193       507.8           5000.           504.8    
    896      1     28    194       508.9           5000.           505.9    
    897      1     28    194       510.7           5000.           507.7    
    898      1     28    195       511.7           5000.           508.7    
    899      1     28    195       512.8           5000.           509.8    
    900      1     28    233       457.8           5000.           454.8    
    901      1     28    234       460.6           5000.           457.6    
    902      1     28    247       445.8           5000.           442.8    
    903      1     28    248       445.8           5000.           442.8    
    904      1     28    260       483.5           5000.           480.5    
    905      1     28    261       487.4           5000.           484.4    
    906      1     28    262       492.6           5000.           489.6    
    907      1     28    262       495.2           5000.           492.2    
    908      1     28    263       496.7           5000.           493.7    
    909      1     28    264       500.1           5000.           497.1    
    910      1     28    264       506.0           5000.           503.0    
    911      1     28    324       676.4           5000.           673.4    
    912      1     28    325       677.8           5000.           674.8    
    913      1     28    326       679.7           5000.           676.7    
    914      1     28    352       601.5           5000.           598.5    
    915      1     28    367       657.0           5000.           654.0    
    916      1     29    169       515.3           5000.           512.3    
    917      1     29    184       503.8           5000.           500.8    
    918      1     29    184       503.8           5000.           500.8    
    919      1     29    186       497.9           5000.           494.9    
    920      1     29    187       498.0           5000.           495.0    
    921      1     29    187       499.2           5000.           496.2    
    922      1     29    188       499.2           5000.           496.2    
    923      1     29    189       500.0           5000.           497.0    
    924      1     29    190       505.4           5000.           502.4    
    925      1     29    191       505.7           5000.           502.7    
    926      1     29    192       505.7           5000.           502.7    
    927      1     29    194       509.7           5000.           506.7    
    928      1     29    194       510.1           5000.           507.1    
    929      1     29    234       457.8           5000.           454.8    
    930      1     29    234       457.8           5000.           454.8    
    931      1     29    235       454.2           5000.           451.2    
    932      1     29    247       445.8           5000.           442.8    
    933      1     29    248       445.8           5000.           442.8    
    934      1     29    264       501.0           5000.           498.0    
    935      1     29    264       510.4           5000.           507.4    
    936      1     29    265       516.5           5000.           513.5    
    937      1     29    265       518.8           5000.           515.8    
    938      1     29    323       674.8           5000.           671.8    
    939      1     29    324       673.1           5000.           670.1    
    940      1     29    325       679.7           5000.           676.7    
    941      1     29    325       679.7           5000.           676.7    
    942      1     29    326       679.7           5000.           676.7    
    943      1     29    352       600.7           5000.           597.7    
    944      1     29    352       601.0           5000.           598.0    
    945      1     29    359       637.8           5000.           634.8    
    946      1     29    361       640.3           5000.           637.3    
    947      1     29    362       642.3           5000.           639.3    
    948      1     29    362       644.2           5000.           641.2    
    949      1     29    363       645.4           5000.           642.4    
    950      1     29    364       648.5           5000.           645.5    
    951      1     29    364       651.3           5000.           648.3    
    952      1     29    365       651.3           5000.           648.3    
    953      1     29    367       657.0           5000.           654.0    
    954      1     29    169       513.9           5000.           510.9    
[...]
        644.1       649.1       652.2       653.4       652.8       650.5       646.6       641.2       634.4       626.3    
        616.9       606.4       595.0       582.8       570.4       558.5       549.6       539.7       543.1       573.2    
        599.8       624.0       645.5       664.2       680.1       693.3       703.9       711.9       717.5       720.7    
        721.5       720.0       716.3       710.4       702.4       692.3       680.3       666.3       650.4       632.9    
        613.9       593.5       572.0       549.9       527.8       507.0       488.9       533.1       581.3       630.8    
        679.6       727.0       772.9       817.0       859.6       900.5       940.0       978.0       1015.       1050.    
        1084.       1116.       1148.       1178.       1207.       1235.       1262.       1287.       1312.       1336.    
        1358.       1379.       1400.       1419.       1437.       1455.       1471.       1486.       1501.       1514.    
        1526.       1538.       1548.       1558.       1566.       1574.       1580.       1586.       1591.       1595.    
        1598.       1601.       1603.       1604.       1604.       1603.       1602.       1600.       1598.       1595.    
        1591.       1587.       1582.       1578.       1572.       1566.       1560.       1554.       1548.       1541.    
        1534.       1527.       1520.       1513.       1506.       1498.       1491.       1484.       1476.       1469.    
        1462.       1454.       1447.       1440.       1432.       1424.       1417.       1408.       1400.       1391.    
        1382.       1373.       1363.       1353.       1342.       1330.       1318.       1305.       1291.       1277.    
        1262.       1246.       1229.       1211.       1192.       1173.       1152.       1131.       1108.       1085.    
        1061.       1036.       1010.       983.9       956.9       929.3       901.3       873.1       844.9       816.8    
        789.2       762.2       736.0       710.9       687.1       664.9       644.4       624.9       605.8       586.2    
        564.3       564.1       595.8       635.8       673.9       708.8       740.5       769.4       795.9       820.0    
        842.1       862.3       880.6       897.4       912.5       926.3       938.6       949.6       959.3       967.9    
        975.3       981.5       986.7       990.7       993.8       995.7       996.7       996.6       995.4       993.2    
        990.0       985.6       980.1       973.4       965.6       956.4       945.9       934.0       920.6       905.6    
        888.9       870.3       849.7       826.9       801.9       774.6       745.4       715.4       687.5       667.1    
        649.6       632.2       613.3       586.0       587.0       588.1       586.7       583.7       578.7       569.5    
        549.3       521.2       481.7       432.1       374.1       309.2       238.5       162.7       82.88       0.000    
 248    10.00       56.19       100.3       142.4       182.3       220.1       255.7       289.1       320.2       349.1    
        375.7       400.1       422.4       442.7       461.2       478.0       493.4       507.6       520.7       532.9    
        544.2       554.9       564.9       574.4       583.3       591.7       599.6       606.9       613.7       619.8    
        625.3       630.1       634.2       637.4       639.8       641.4       642.1       641.8       640.7       638.5    
        635.4       631.3       626.2       620.2       613.3       605.5       596.9       587.6       577.8       567.6    
        557.4       547.6       538.5       530.9       525.5       522.0       519.9       518.7       518.0       518.3    
        519.2       520.4       523.8       526.0       521.1       568.4       602.8       630.4       653.6       673.5    
        690.7       705.4       718.0       728.6       737.4       744.5       749.9       753.8       756.3       757.5    
        757.4       756.1       753.7       750.3       745.9       740.5       734.3       727.4       719.7       711.5    
        702.7       693.5       684.0       674.2       664.2       654.2       644.2       634.3       624.5       614.9    
        605.6       596.5       587.9       579.8       572.6       566.3       561.0       556.3       552.1       548.3    
        544.6       540.9       539.2       538.2       538.5       559.5       574.7       586.6       596.2       603.9    
        610.0       614.7       618.2       620.5       621.7       622.0       621.5       620.1       618.0       615.2    
        611.9       608.0       603.9       599.6       595.3       591.2       587.3       583.7       580.2       576.8    
        573.1       568.7       563.2       554.3       554.8       579.8       598.1       613.3       625.7       635.7    
        643.4       648.9       652.4       653.9       653.6       651.7       648.1       643.0       636.6       628.8    
        619.8       609.8       598.8       587.0       573.9       557.9       552.6       546.7       542.1       563.3    
        591.3       617.4       640.4       660.2       676.9       690.7       701.8       710.2       716.1       719.5    
        720.5       719.3       715.8       710.1       702.3       692.4       680.5       666.8       651.2       633.9    
        615.0       594.6       572.9       549.9       526.3       503.4       489.3       537.3       585.8       634.3    
        682.3       729.2       774.7       818.7       861.2       902.2       941.7       979.8       1017.       1052.    
        1086.       1119.       1150.       1180.       1210.       1238.       1264.       1290.       1315.       1338.    
        1361.       1382.       1403.       1422.       1440.       1458.       1474.       1489.       1504.       1517.    
        1529.       1541.       1551.       1561.       1569.       1577.       1584.       1590.       1595.       1599.    
        1602.       1605.       1606.       1607.       1608.       1607.       1606.       1604.       1602.       1599.    
        1596.       1592.       1587.       1582.       1577.       1572.       1566.       1559.       1553.       1546.    
        1540.       1533.       1526.       1519.       1511.       1504.       1497.       1490.       1482.       1475.    
        1468.       1460.       1453.       1445.       1438.       1430.       1422.       1414.       1405.       1396.    
        1387.       1378.       1368.       1357.       1346.       1334.       1322.       1309.       1295.       1281.    
        1265.       1249.       1232.       1214.       1196.       1176.       1156.       1134.       1112.       1089.    
        1065.       1040.       1014.       988.3       961.6       934.4       906.9       879.2       851.5       824.0    
        796.9       770.4       744.8       720.1       696.5       674.2       653.1       633.0       613.5       594.5    
        576.6       564.1       564.8       621.6       665.7       703.3       736.8       766.9       794.3       819.2    
        841.9       862.5       881.4       898.5       913.9       927.9       940.5       951.7       961.6       970.3    
        977.8       984.1       989.3       993.5       996.5       998.5       999.5       999.4       998.2       995.9    
        992.6       988.1       982.5       975.6       967.5       958.1       947.4       935.1       921.2       905.7    
        888.2       868.7       846.9       822.4       795.0       764.2       729.8       692.0       654.7       638.9    
        625.5       610.8       598.8       584.6       587.5       587.1       584.0       578.2       569.1       554.8    
        532.8       502.7       463.7       415.9       360.4       298.1       230.0       156.9       79.97       0.000    
 249    10.00       56.11       100.2       142.2       182.1       219.8       255.3       288.7       319.8       348.7    
        375.4       400.0       422.5       443.1       461.9       479.1       494.9       509.4       522.8       535.2    
        546.7       557.5       567.7       577.2       586.2       594.6       602.4       609.7       616.4       622.5    
        627.9       632.6       636.6       639.8       642.1       643.6       644.3       644.0       642.8       640.6    
        637.5       633.4       628.4       622.5       615.7       608.0       599.7       590.8       581.4       571.8    
        562.3       553.2       544.9       537.9       532.5       528.6       526.1       524.6       524.0       524.4    
        525.8       528.4       532.8       539.2       549.6       576.4       604.2       629.7       652.5       672.5    
        690.0       705.1       718.0       728.9       737.9       745.2       750.8       755.0       757.6       759.0    
        759.0       757.9       755.6       752.3       748.0       742.8       736.8       730.0       722.5       714.5    
        705.9       696.8       687.5       677.9       668.1       658.2       648.3       638.5       628.9       619.4    
        610.3       601.4       593.0       585.2       578.1       571.8       566.3       561.4       557.0       553.1    
        549.5       546.3       544.0       541.9       538.7       558.3       573.7       586.2       596.4       604.6    
        611.1       616.1       619.8       622.3       623.8       624.3       623.9       622.6       620.7       618.1    
        615.0       611.4       607.5       603.5       599.4       595.4       591.6       587.8       584.2       580.7    
        577.0       573.1       569.2       566.4       569.8       579.4       595.9       611.3       624.3       634.8    
        642.9       648.7       652.4       654.2       654.2       652.5       649.1       644.3       638.0       630.5    
        621.8       612.1       601.5       590.2       578.4       566.7       558.2       550.4       542.3       544.7    
        582.5       612.0       636.6       657.3       674.7       688.9       700.3       709.0       715.1       718.7    
        719.9       718.8       715.4       709.8       702.2       692.4       680.7       667.1       651.7       634.5    
        615.6       595.1       572.9       548.7       521.9       489.2       488.9       539.0       588.1       636.5    
        684.2       730.7       776.0       819.9       862.3       903.3       942.9       981.0       1018.       1053.    
        1087.       1120.       1152.       1182.       1211.       1239.       1266.       1292.       1317.       1340.    
        1363.       1384.       1405.       1424.       1442.       1460.       1476.       1491.       1506.       1519.    
        1531.       1543.       1553.       1563.       1571.       1579.       1586.       1592.       1597.       1601.    
        1604.       1607.       1609.       1610.       1610.       1610.       1609.       1607.       1605.       1602.    
        1599.       1595.       1590.       1586.       1580.       1575.       1569.       1563.       1557.       1550.    
        1543.       1536.       1529.       1522.       1515.       1508.       1501.       1494.       1486.       1479.    
        1472.       1464.       1457.       1449.       1441.       1433.       1425.       1417.       1409.       1400.    
        1390.       1381.       1371.       1360.       1349.       1337.       1325.       1311.       1298.       1283.    
        1268.       1252.       1234.       1217.       1198.       1178.       1158.       1136.       1114.       1091.    
        1067.       1043.       1017.       991.2       964.7       937.8       910.6       883.3       855.9       828.8    
        802.1       775.9       750.5       726.0       702.6       680.2       658.9       638.4       618.7       599.7    
        581.4       564.1       564.7       618.0       661.8       700.1       734.3       765.2       793.1       818.5    
        841.7       862.7       881.8       899.1       914.8       929.0       941.7       953.1       963.1       971.9    
        979.4       985.8       991.1       995.3       998.4       1000.       1001.       1001.      1000.0       997.7    
        994.3       989.7       984.0       977.1       968.8       959.3       948.3       935.8       921.6       905.6    
        887.6       867.4       844.6       818.8       789.4       755.5       715.5       666.3       598.4       606.2    
        600.7       584.8       584.5       591.5       589.4       586.7       581.9       574.2       562.6       545.8    
        522.2       491.2       452.3       405.5       351.4       290.7       224.4       153.2       78.06       0.000    
 250    10.00       56.07       100.1       142.1       181.9       219.6       255.1       288.5       319.6       348.5    
        375.3       400.0       422.6       443.4       462.3       479.7       495.6       510.3       523.8       536.3    
        548.0       558.9       569.1       578.6       587.6       596.0       603.9       611.1       617.8       623.8    
        629.2       633.9       637.8       641.0       643.3       644.8       645.4       645.1       643.8       641.7    
        638.5       634.5       629.5       623.6       616.9       609.4       601.1       592.4       583.2       573.9    
        564.7       556.0       548.1       541.3       535.9       531.9       529.2       527.6       527.1       527.6    
        529.3       532.5       537.9       546.2       559.7       581.3       605.8       629.9       652.2       672.1    
        689.7       704.9       718.0       729.0       738.1       745.5       751.3       755.5       758.3       759.7    
        759.8       758.8       756.6       753.4       749.1       744.0       738.1       731.3       723.9       716.0    
        707.4       698.5       689.2       679.7       670.0       660.2       650.4       640.7       631.1       621.7    
        612.6       603.9       595.6       587.9       580.8       574.5       568.9       563.9       559.5       555.5    
        552.0       549.0       546.6       544.8       543.9       559.3       573.7       586.1       596.4       604.8    
        611.5       616.7       620.6       623.2       624.8       625.4       625.0       623.9       622.1       619.6    
        616.6       613.1       609.4       605.4       601.4       597.5       593.7       589.9       586.3       582.7    
        579.0       575.5       572.3       570.2       569.8       570.1       592.6       609.8       623.5       634.3    
        642.6       648.6       652.5       654.4       654.5       652.9       649.6       644.9       638.8       631.4    
        622.8       613.3       602.9       592.0       580.9       570.2       561.0       552.6       544.3       545.9    
        580.0       609.6       634.7       655.8       673.5       688.0       699.6       708.4       714.6       718.3    
        719.6       718.5       715.2       709.7       702.1       692.5       680.8       667.3       651.9       634.8    
        615.9       595.3       572.8       548.3       521.3       491.7       488.9       539.7       589.1       637.6    
        685.1       731.5       776.6       820.5       862.9       903.9       943.5       981.7       1018.       1054.    
        1088.       1121.       1153.       1183.       1212.       1240.       1267.       1293.       1318.       1341.    
        1364.       1385.       1406.       1425.       1443.       1461.       1477.       1492.       1507.       1520.    
        1532.       1544.       1554.       1564.       1573.       1580.       1587.       1593.       1598.       1602.    
        1606.       1608.       1610.       1611.       1612.       1611.       1610.       1609.       1606.       1603.    
        1600.       1596.       1592.       1587.       1582.       1577.       1571.       1565.       1558.       1552.    
        1545.       1538.       1531.       1524.       1517.       1510.       1503.       1495.       1488.       1481.    
        1473.       1466.       1458.       1451.       1443.       1435.       1427.       1419.       1410.       1401.    
        1392.       1382.       1372.       1361.       1350.       1338.       1326.       1313.       1299.       1284.    
        1269.       1253.       1236.       1218.       1199.       1179.       1159.       1138.       1115.       1092.    
        1068.       1044.       1019.       992.7       966.3       939.6       912.5       885.3       858.1       831.2    
        804.6       778.7       753.4       729.0       705.6       683.2       661.7       641.2       621.3       602.1    
        583.2       564.2       584.3       622.0       661.6       699.0       733.2       764.3       792.5       818.2    
        841.5       862.7       882.0       899.5       915.3       929.5       942.3       953.7       963.8       972.6    
        980.3       986.7       992.0       996.2       999.3       1001.       1002.       1002.       1001.       998.6    
        995.1       990.5       984.8       977.8       969.5       959.8       948.7       936.1       921.7       905.5    
        887.3       866.7       843.4       816.8       786.3       750.8       708.5       657.2       594.7       584.7    
        584.5       585.3       590.7       591.3       589.7       586.4       580.8       572.2       559.4       541.4    
        517.1       485.7       446.8       400.4       347.0       287.1       221.6       151.3       77.12       0.000    

 HEAD WILL BE SAVED ON UNIT   51 AT END OF TIME STEP    1, STRESS PERIOD    1
1
  VOLUMETRIC BUDGET FOR ENTIRE MODEL AT END OF TIME STEP    1, STRESS PERIOD   1
  ------------------------------------------------------------------------------

     CUMULATIVE VOLUMES      L**3       RATES FOR THIS TIME STEP      L**3/T
     ------------------                 ------------------------

           IN:                                      IN:
           ---                                      ---
             STORAGE =           0.0000               STORAGE =           0.0000
       CONSTANT HEAD =           0.0000         CONSTANT HEAD =           0.0000
       RIVER LEAKAGE =    11809019.0000         RIVER LEAKAGE =    11809019.0000
            RECHARGE =     9699999.0000              RECHARGE =     9699999.0000

            TOTAL IN =    21509018.0000              TOTAL IN =    21509018.0000

          OUT:                                     OUT:
          ----                                     ----
             STORAGE =           0.0000               STORAGE =           0.0000
       CONSTANT HEAD =     2893561.2500         CONSTANT HEAD =     2893561.2500
       RIVER LEAKAGE =    18615456.0000         RIVER LEAKAGE =    18615456.0000
            RECHARGE =           0.0000              RECHARGE =           0.0000

           TOTAL OUT =    21509018.0000             TOTAL OUT =    21509018.0000

            IN - OUT =           0.0000              IN - OUT =           0.0000

 PERCENT DISCREPANCY =           0.00     PERCENT DISCREPANCY =           0.00






         TIME SUMMARY AT END OF TIME STEP    1 IN STRESS PERIOD    1
                    SECONDS     MINUTES      HOURS       DAYS        YEARS
                    -----------------------------------------------------------
   TIME STEP LENGTH  86400.      1440.0      24.000      1.0000     2.73785E-03
 STRESS PERIOD TIME  86400.      1440.0      24.000      1.0000     2.73785E-03
         TOTAL TIME  86400.      1440.0      24.000      1.0000     2.73785E-03
1

 Run end date and time (yyyy/mm/dd hh:mm:ss): 2020/04/06 23:04:18
 Elapsed run time:  0.869 Seconds

