                                  MODFLOW-2005     
      U.S. GEOLOGICAL SURVEY MODULAR FINITE-DIFFERENCE GROUND-WATER FLOW MODEL
                            VERSION 1.12.00 2/3/2017

 LIST FILE: my_model.list
                         UNIT    2

 OPENING my_model.dis
 FILE TYPE:DIS   UNIT   11   STATUS:OLD    
 FORMAT:FORMATTED              ACCESS:SEQUENTIAL          

 OPENING my_model.bas
 FILE TYPE:BAS6   UNIT   13   STATUS:OLD    
 FORMAT:FORMATTED              ACCESS:SEQUENTIAL          

 OPENING my_model.lpf
 FILE TYPE:LPF   UNIT   15   STATUS:OLD    
 FORMAT:FORMATTED              ACCESS:SEQUENTIAL          

 OPENING my_model.rch
 FILE TYPE:RCH   UNIT   19   STATUS:OLD    
 FORMAT:FORMATTED              ACCESS:SEQUENTIAL          

 OPENING my_model.oc
 FILE TYPE:OC   UNIT   14   STATUS:OLD    
 FORMAT:FORMATTED              ACCESS:SEQUENTIAL          

 OPENING my_model.pcg
 FILE TYPE:PCG   UNIT   27   STATUS:OLD    
 FORMAT:FORMATTED              ACCESS:SEQUENTIAL          

 OPENING my_model.cbc
 FILE TYPE:DATA(BINARY)   UNIT    1   STATUS:REPLACE
 FORMAT:BINARY                 ACCESS:SEQUENTIAL          

 OPENING my_model.hds
 FILE TYPE:DATA(BINARY)   UNIT   51   STATUS:REPLACE
 FORMAT:BINARY                 ACCESS:SEQUENTIAL          

 BAS -- BASIC PACKAGE, VERSION 7, 5/2/2005 INPUT READ FROM UNIT   13
 
 MODFLOW was compiled using mixed precision
 Precision of REAL variables:           6
 Precision of DOUBLE PRECISION variables:          15

 DISCRETIZATION INPUT DATA READ FROM UNIT   11
 # DIS package for  MODFLOW-2005, generated by Flopy.
    1 LAYERS       100 ROWS       156 COLUMNS
    1 STRESS PERIOD(S) IN SIMULATION
 MODEL TIME UNIT IS DAYS
 MODEL LENGTH UNIT IS FEET
  Confining bed flag for each layer:
   0

                     DELR =   2500.00    

                     DELC =   2500.00    

 TOP ELEVATION OF LAYER 1 =   0.00000    

   MODEL LAYER BOTTOM EL. =  -50.0000     FOR LAYER   1


 STRESS PERIOD     LENGTH       TIME STEPS     MULTIPLIER FOR DELT    SS FLAG
 ----------------------------------------------------------------------------
        1         1.000000          1                    1.000         SS

 STEADY-STATE SIMULATION



 
 # BAS6 package for  MODFLOW-2005, generated by Flopy.                           
 THE FREE FORMAT OPTION HAS BEEN SELECTED



                     BOUNDARY ARRAY FOR LAYER   1
 READING ON UNIT   13 WITH FORMAT: (156I10)            

 AQUIFER HEAD WILL BE SET TO  -999.99     AT ALL NO-FLOW NODES (IBOUND=0).



                       INITIAL HEAD FOR LAYER   1
 READING ON UNIT   13 WITH FORMAT: (156E15.6)          
 # OC package for  MODFLOW-2005, generated by Flopy.

 OUTPUT CONTROL IS SPECIFIED ONLY AT TIME STEPS FOR WHICH OUTPUT IS DESIRED
 COMPACT CELL-BY-CELL BUDGET FILES WILL BE WRITTEN
 AUXILIARY DATA WILL BE SAVED IN CELL-BY-CELL BUDGET FILES
 HEAD PRINT FORMAT CODE IS   0    DRAWDOWN PRINT FORMAT CODE IS   0
 HEADS WILL BE SAVED ON UNIT   51    DRAWDOWNS WILL BE SAVED ON UNIT    0

 LPF -- LAYER-PROPERTY FLOW PACKAGE, VERSION 7, 5/2/2005
         INPUT READ FROM UNIT   15
 # LPF package for  MODFLOW-2005, generated by Flopy.
 CELL-BY-CELL FLOWS WILL BE SAVED ON UNIT    1
 HEAD AT CELLS THAT CONVERT TO DRY= -1.00000E+30
 No named parameters

   LAYER FLAGS:
 LAYER       LAYTYP        LAYAVG         CHANI        LAYVKA        LAYWET
 ---------------------------------------------------------------------------
    1             1             0     1.000E+00             0             0

   INTERPRETATION OF LAYER FLAGS:
                        INTERBLOCK     HORIZONTAL    DATA IN
         LAYER TYPE   TRANSMISSIVITY   ANISOTROPY   ARRAY VKA   WETTABILITY
 LAYER      (LAYTYP)      (LAYAVG)       (CHANI)      (LAYVKA)      (LAYWET)
 ---------------------------------------------------------------------------
    1   CONVERTIBLE      HARMONIC     1.000E+00    VERTICAL K  NON-WETTABLE

 WETTING CAPABILITY IS NOT ACTIVE IN ANY LAYER



              HYD. COND. ALONG ROWS FOR LAYER   1
 READING ON UNIT   15 WITH FORMAT: (156E15.6)          



                VERTICAL HYD. COND. FOR LAYER   1
 READING ON UNIT   15 WITH FORMAT: (156E15.6)          

 RCH -- RECHARGE PACKAGE, VERSION 7, 5/2/2005 INPUT READ FROM UNIT   19
 # RCH package for  MODFLOW-2005, generated by Flopy.
 No named parameters
 OPTION 3 -- RECHARGE TO HIGHEST ACTIVE NODE IN EACH VERTICAL COLUMN


     0 Recharge parameters

 PCG -- CONJUGATE-GRADIENT SOLUTION PACKAGE, VERSION 7, 5/2/2005
 # PCG package for  MODFLOW-2005, generated by Flopy.
 MAXIMUM OF     50 CALLS OF SOLUTION ROUTINE
 MAXIMUM OF     30 INTERNAL ITERATIONS PER CALL TO SOLUTION ROUTINE
 MATRIX PRECONDITIONING TYPE :    1



                                    SOLUTION BY THE CONJUGATE-GRADIENT METHOD
                                   -------------------------------------------
                    MAXIMUM NUMBER OF CALLS TO PCG ROUTINE =       50
                        MAXIMUM ITERATIONS PER CALL TO PCG =       30
                               MATRIX PRECONDITIONING TYPE =        1
        RELAXATION FACTOR (ONLY USED WITH PRECOND. TYPE 1) =    0.10000E+01
 PARAMETER OF POLYNOMIAL PRECOND. = 2 (2) OR IS CALCULATED :        0
                         HEAD CHANGE CRITERION FOR CLOSURE =    0.10000E-04
                     RESIDUAL CHANGE CRITERION FOR CLOSURE =    0.10000E-04
            PCG HEAD AND RESIDUAL CHANGE PRINTOUT INTERVAL =      999
     PRINTING FROM SOLVER IS LIMITED(1) OR SUPPRESSED (>1) =        3
                            STEADY-STATE DAMPING PARAMETER =    0.10000E+01
                               TRANSIENT DAMPING PARAMETER =    0.10000E+01
1
                            STRESS PERIOD NO.    1, LENGTH =   1.000000    
                            -----------------------------------------------

                              NUMBER OF TIME STEPS =     1

                               MULTIPLIER FOR DELT =     1.000

                            INITIAL TIME STEP SIZE =   1.000000    

                 RECHARGE =  1.000000E-06
 
 SOLVING FOR HEAD 

 OUTPUT CONTROL FOR STRESS PERIOD    1   TIME STEP    1
    PRINT HEAD FOR ALL LAYERS
    PRINT BUDGET
    SAVE HEAD FOR ALL LAYERS
    SAVE BUDGET
 UBDSV2 SAVING "   CONSTANT HEAD" ON UNIT   1 AT TIME STEP  1, STRESS PERIOD   1
 UBDSV1 SAVING "FLOW RIGHT FACE " ON UNIT   1 AT TIME STEP  1, STRESS PERIOD   1
 UBDSV1 SAVING "FLOW FRONT FACE " ON UNIT   1 AT TIME STEP  1, STRESS PERIOD   1
1
              HEAD IN LAYER   1 AT END OF TIME STEP   1 IN STRESS PERIOD    1
  ---------------------------------------------------------------------------

            1           2           3           4           5           6           7           8           9          10
           11          12          13          14          15          16          17          18          19          20
           21          22          23          24          25          26          27          28          29          30
           31          32          33          34          35          36          37          38          39          40
           41          42          43          44          45          46          47          48          49          50
           51          52          53          54          55          56          57          58          59          60
           61          62          63          64          65          66          67          68          69          70
           71          72          73          74          75          76          77          78          79          80
           81          82          83          84          85          86          87          88          89          90
           91          92          93          94          95          96          97          98          99         100
          101         102         103         104         105         106         107         108         109         110
          111         112         113         114         115         116         117         118         119         120
          121         122         123         124         125         126         127         128         129         130
          131         132         133         134         135         136         137         138         139         140
          141         142         143         144         145         146         147         148         149         150
          151         152         153         154         155         156
 ........................................................................................................................
   1    10.00       19.56       29.00       38.31       47.49       56.55       65.49       74.30       82.98       91.54    
        99.98       108.3       116.5       124.5       132.5       140.3       148.0       155.5       163.0       170.3    
        177.5       184.5       191.5       198.3       205.0       211.5       217.9       224.3       230.4       236.5    
        242.4       248.2       253.9       259.5       264.9       270.2       275.4       280.5       285.4       290.2    
        294.9       299.5       303.9       308.2       312.4       316.5       320.4       324.2       327.9       331.5    
        334.9       338.2       341.4       344.5       347.4       350.2       352.9       355.4       357.9       360.2    
        362.4       364.4       366.4       368.2       369.9       371.4       372.9       374.2       375.4       376.4    
        377.4       378.2       378.9       379.4       379.9       380.2       380.3       380.4       380.3       380.2    
        379.8       379.4       378.8       378.1       377.3       376.4       375.3       374.1       372.8       371.4    
        369.8       368.1       366.3       364.4       362.3       360.1       357.8       355.4       352.8       350.1    
        347.3       344.4       341.3       338.1       334.8       331.4       327.8       324.1       320.3       316.3    
        312.3       308.1       303.8       299.3       294.8       290.1       285.3       280.3       275.3       270.1    
        264.8       259.3       253.8       248.1       242.2       236.3       230.2       224.1       217.7       211.3    
        204.7       198.0       191.2       184.3       177.2       170.0       162.7       155.3       147.7       140.0    
        132.2       124.3       116.2       108.0       99.71       91.27       82.71       74.02       65.20       56.26    
        47.20       38.01       28.69       19.25       9.690       0.000    
   2    10.00       19.56       29.00       38.31       47.49       56.55       65.49       74.30       82.98       91.54    
        99.98       108.3       116.5       124.5       132.5       140.3       148.0       155.5       163.0       170.3    
        177.5       184.5       191.5       198.3       205.0       211.5       217.9       224.3       230.4       236.5    
        242.4       248.2       253.9       259.5       264.9       270.2       275.4       280.5       285.4       290.2    
        294.9       299.5       303.9       308.2       312.4       316.5       320.4       324.2       327.9       331.5    
        334.9       338.2       341.4       344.5       347.4       350.2       352.9       355.4       357.9       360.2    
        362.4       364.4       366.4       368.2       369.9       371.4       372.9       374.2       375.4       376.4    
        377.4       378.2       378.9       379.4       379.9       380.2       380.3       380.4       380.3       380.2    
        379.8       379.4       378.8       378.1       377.3       376.4       375.3       374.1       372.8       371.4    
        369.8       368.1       366.3       364.4       362.3       360.1       357.8       355.4       352.8       350.1    
        347.3       344.4       341.3       338.1       334.8       331.4       327.8       324.1       320.3       316.3    
        312.3       308.1       303.8       299.3       294.8       290.1       285.3       280.3       275.3       270.1    
        264.8       259.3       253.8       248.1       242.2       236.3       230.2       224.1       217.7       211.3    
        204.7       198.0       191.2       184.3       177.2       170.0       162.7       155.3       147.7       140.0    
        132.2       124.3       116.2       108.0       99.71       91.27       82.71       74.02       65.20       56.26    
        47.20       38.01       28.69       19.25       9.690       0.000    
   3    10.00       19.56       29.00       38.31       47.49       56.55       65.49       74.30       82.98       91.54    
        99.98       108.3       116.5       124.5       132.5       140.3       148.0       155.5       163.0       170.3    
        177.5       184.5       191.5       198.3       205.0       211.5       217.9       224.3       230.4       236.5    
        242.4       248.2       253.9       259.5       264.9       270.2       275.4       280.5       285.4       290.2    
        294.9       299.5       303.9       308.2       312.4       316.5       320.4       324.2       327.9       331.5    
        334.9       338.2       341.4       344.5       347.4       350.2       352.9       355.4       357.9       360.2    
        362.4       364.4       366.4       368.2       369.9       371.4       372.9       374.2       375.4       376.4    
        377.4       378.2       378.9       379.4       379.9       380.2       380.3       380.4       380.3       380.2    
        379.8       379.4       378.8       378.1       377.3       376.4       375.3       374.1       372.8       371.4    
        369.8       368.1       366.3       364.4       362.3       360.1       357.8       355.4       352.8       350.1    
        347.3       344.4       341.3       338.1       334.8       331.4       327.8       324.1       320.3       316.3    
        312.3       308.1       303.8       299.3       294.8       290.1       285.3       280.3       275.3       270.1    
        264.8       259.3       253.8       248.1       242.2       236.3       230.2       224.1       217.7       211.3    
        204.7       198.0       191.2       184.3       177.2       170.0       162.7       155.3       147.7       140.0    
        132.2       124.3       116.2       108.0       99.71       91.27       82.71       74.02       65.20       56.26    
        47.20       38.01       28.69       19.25       9.690       0.000    
   4    10.00       19.56       29.00       38.31       47.49       56.55       65.49       74.30       82.98       91.54    
        99.98       108.3       116.5       124.5       132.5       140.3       148.0       155.5       163.0       170.3    
        177.5       184.5       191.5       198.3       205.0       211.5       217.9       224.3       230.4       236.5    
        242.4       248.2       253.9       259.5       264.9       270.2       275.4       280.5       285.4       290.2    
        294.9       299.5       303.9       308.2       312.4       316.5       320.4       324.2       327.9       331.5    
        334.9       338.2       341.4       344.5       347.4       350.2       352.9       355.4       357.9       360.2    
        362.4       364.4       366.4       368.2       369.9       371.4       372.9       374.2       375.4       376.4    
        377.4       378.2       378.9       379.4       379.9       380.2       380.3       380.4       380.3       380.2    
        379.8       379.4       378.8       378.1       377.3       376.4       375.3       374.1       372.8       371.4    
        369.8       368.1       366.3       364.4       362.3       360.1       357.8       355.4       352.8       350.1    
        347.3       344.4       341.3       338.1       334.8       331.4       327.8       324.1       320.3       316.3    
        312.3       308.1       303.8       299.3       294.8       290.1       285.3       280.3       275.3       270.1    
        264.8       259.3       253.8       248.1       242.2       236.3       230.2       224.1       217.7       211.3    
        204.7       198.0       191.2       184.3       177.2       170.0       162.7       155.3       147.7       140.0    
        132.2       124.3       116.2       108.0       99.71       91.27       82.71       74.02       65.20       56.26    
        47.20       38.01       28.69       19.25       9.690       0.000    
   5    10.00       19.56       29.00       38.31       47.49       56.55       65.49       74.30       82.98       91.54    
        99.98       108.3       116.5       124.5       132.5       140.3       148.0       155.5       163.0       170.3    
        177.5       184.5       191.5       198.3       205.0       211.5       217.9       224.3       230.4       236.5    
        242.4       248.2       253.9       259.5       264.9       270.2       275.4       280.5       285.4       290.2    
        294.9       299.5       303.9       308.2       312.4       316.5       320.4       324.2       327.9       331.5    
        334.9       338.2       341.4       344.5       347.4       350.2       352.9       355.4       357.9       360.2    
        362.4       364.4       366.4       368.2       369.9       371.4       372.9       374.2       375.4       376.4    
        377.4       378.2       378.9       379.4       379.9       380.2       380.3       380.4       380.3       380.2    
        379.8       379.4       378.8       378.1       377.3       376.4       375.3       374.1       372.8       371.4    
        369.8       368.1       366.3       364.4       362.3       360.1       357.8       355.4       352.8       350.1    
        347.3       344.4       341.3       338.1       334.8       331.4       327.8       324.1       320.3       316.3    
        312.3       308.1       303.8       299.3       294.8       290.1       285.3       280.3       275.3       270.1    
        264.8       259.3       253.8       248.1       242.2       236.3       230.2       224.1       217.7       211.3    
        204.7       198.0       191.2       184.3       177.2       170.0       162.7       155.3       147.7       140.0    
        132.2       124.3       116.2       108.0       99.71       91.27       82.71       74.02       65.20       56.26    
        47.20       38.01       28.69       19.25       9.690       0.000    
   6    10.00       19.56       29.00       38.31       47.49       56.55       65.49       74.30       82.98       91.54    
        99.98       108.3       116.5       124.5       132.5       140.3       148.0       155.5       163.0       170.3    
        177.5       184.5       191.5       198.3       205.0       211.5       217.9       224.3       230.4       236.5    
        242.4       248.2       253.9       259.5       264.9       270.2       275.4       280.5       285.4       290.2    
        294.9       299.5       303.9       308.2       312.4       316.5       320.4       324.2       327.9       331.5    
        334.9       338.2       341.4       344.5       347.4       350.2       352.9       355.4       357.9       360.2    
        362.4       364.4       366.4       368.2       369.9       371.4       372.9       374.2       375.4       376.4    
        377.4       378.2       378.9       379.4       379.9       380.2       380.3       380.4       380.3       380.2    
        379.8       379.4       378.8       378.1       377.3       376.4       375.3       374.1       372.8       371.4    
        369.8       368.1       366.3       364.4       362.3       360.1       357.8       355.4       352.8       350.1    
        347.3       344.4       341.3       338.1       334.8       331.4       327.8       324.1       320.3       316.3    
        312.3       308.1       303.8       299.3       294.8       290.1       285.3       280.3       275.3       270.1    
        264.8       259.3       253.8       248.1       242.2       236.3       230.2       224.1       217.7       211.3    
        204.7       198.0       191.2       184.3       177.2       170.0       162.7       155.3       147.7       140.0    
        132.2       124.3       116.2       108.0       99.71       91.27       82.71       74.02       65.20       56.26    
        47.20       38.01       28.69       19.25       9.690       0.000    
   7    10.00       19.56       29.00       38.31       47.49       56.55       65.49       74.30       82.98       91.54    
        99.98       108.3       116.5       124.5       132.5       140.3       148.0       155.5       163.0       170.3    
        177.5       184.5       191.5       198.3       205.0       211.5       217.9       224.3       230.4       236.5    
        242.4       248.2       253.9       259.5       264.9       270.2       275.4       280.5       285.4       290.2    
        294.9       299.5       303.9       308.2       312.4       316.5       320.4       324.2       327.9       331.5    
        334.9       338.2       341.4       344.5       347.4       350.2       352.9       355.4       357.9       360.2    
        362.4       364.4       366.4       368.2       369.9       371.4       372.9       374.2       375.4       376.4    
        377.4       378.2       378.9       379.4       379.9       380.2       380.3       380.4       380.3       380.2    
        379.8       379.4       378.8       378.1       377.3       376.4       375.3       374.1       372.8       371.4    
        369.8       368.1       366.3       364.4       362.3       360.1       357.8       355.4       352.8       350.1    
        347.3       344.4       341.3       338.1       334.8       331.4       327.8       324.1       320.3       316.3    
        312.3       308.1       303.8       299.3       294.8       290.1       285.3       280.3       275.3       270.1    
        264.8       259.3       253.8       248.1       242.2       236.3       230.2       224.1       217.7       211.3    
        204.7       198.0       191.2       184.3       177.2       170.0       162.7       155.3       147.7       140.0    
        132.2       124.3       116.2       108.0       99.71       91.27       82.71       74.02       65.20       56.26    
        47.20       38.01       28.69       19.25       9.690       0.000    
   8    10.00       19.56       29.00       38.31       47.49       56.55       65.49       74.30       82.98       91.54    
        99.98       108.3       116.5       124.5       132.5       140.3       148.0       155.5       163.0       170.3    
        177.5       184.5       191.5       198.3       205.0       211.5       217.9       224.3       230.4       236.5    
        242.4       248.2       253.9       259.5       264.9       270.2       275.4       280.5       285.4       290.2    
        294.9       299.5       303.9       308.2       312.4       316.5       320.4       324.2       327.9       331.5    
        334.9       338.2       341.4       344.5       347.4       350.2       352.9       355.4       357.9       360.2    
        362.4       364.4       366.4       368.2       369.9       371.4       372.9       374.2       375.4       376.4    
        377.4       378.2       378.9       379.4       379.9       380.2       380.3       380.4       380.3       380.2    
        379.8       379.4       378.8       378.1       377.3       376.4       375.3       374.1       372.8       371.4    
        369.8       368.1       366.3       364.4       362.3       360.1       357.8       355.4       352.8       350.1    
        347.3       344.4       341.3       338.1       334.8       331.4       327.8       324.1       320.3       316.3    
        312.3       308.1       303.8       299.3       294.8       290.1       285.3       280.3       275.3       270.1    
        264.8       259.3       253.8       248.1       242.2       236.3       230.2       224.1       217.7       211.3    
        204.7       198.0       191.2       184.3       177.2       170.0       162.7       155.3       147.7       140.0    
        132.2       124.3       116.2       108.0       99.71       91.27       82.71       74.02       65.20       56.26    
        47.20       38.01       28.69       19.25       9.690       0.000    
   9    10.00       19.56       29.00       38.31       47.49       56.55       65.49       74.30       82.98       91.54    
        99.98       108.3       116.5       124.5       132.5       140.3       148.0       155.5       163.0       170.3    
        177.5       184.5       191.5       198.3       205.0       211.5       217.9       224.3       230.4       236.5    
        242.4       248.2       253.9       259.5       264.9       270.2       275.4       280.5       285.4       290.2    
        294.9       299.5       303.9       308.2       312.4       316.5       320.4       324.2       327.9       331.5    
        334.9       338.2       341.4       344.5       347.4       350.2       352.9       355.4       357.9       360.2    
        362.4       364.4       366.4       368.2       369.9       371.4       372.9       374.2       375.4       376.4    
        377.4       378.2       378.9       379.4       379.9       380.2       380.3       380.4       380.3       380.2    
        379.8       379.4       378.8       378.1       377.3       376.4       375.3       374.1       372.8       371.4    
        369.8       368.1       366.3       364.4       362.3       360.1       357.8       355.4       352.8       350.1    
        347.3       344.4       341.3       338.1       334.8       331.4       327.8       324.1       320.3       316.3    
        312.3       308.1       303.8       299.3       294.8       290.1       285.3       280.3       275.3       270.1    
        264.8       259.3       253.8       248.1       242.2       236.3       230.2       224.1       217.7       211.3    
        204.7       198.0       191.2       184.3       177.2       170.0       162.7       155.3       147.7       140.0    
        132.2       124.3       116.2       108.0       99.71       91.27       82.71       74.02       65.20       56.26    
        47.20       38.01       28.69       19.25       9.690       0.000    
  10    10.00       19.56       29.00       38.31       47.49       56.55       65.49       74.30       82.98       91.54    
        99.98       108.3       116.5       124.5       132.5       140.3       148.0       155.5       163.0       170.3    
        177.5       184.5       191.5       198.3       205.0       211.5       217.9       224.3       230.4       236.5    
        242.4       248.2       253.9       259.5       264.9       270.2       275.4       280.5       285.4       290.2    
        294.9       299.5       303.9       308.2       312.4       316.5       320.4       324.2       327.9       331.5    
        334.9       338.2       341.4       344.5       347.4       350.2       352.9       355.4       357.9       360.2    
        362.4       364.4       366.4       368.2       369.9       371.4       372.9       374.2       375.4       376.4    
        377.4       378.2       378.9       379.4       379.9       380.2       380.3       380.4       380.3       380.2    
        379.8       379.4       378.8       378.1       377.3       376.4       375.3       374.1       372.8       371.4    
        369.8       368.1       366.3       364.4       362.3       360.1       357.8       355.4       352.8       350.1    
        347.3       344.4       341.3       338.1       334.8       331.4       327.8       324.1       320.3       316.3    
        312.3       308.1       303.8       299.3       294.8       290.1       285.3       280.3       275.3       270.1    
        264.8       259.3       253.8       248.1       242.2       236.3       230.2       224.1       217.7       211.3    
        204.7       198.0       191.2       184.3       177.2       170.0       162.7       155.3       147.7       140.0    
        132.2       124.3       116.2       108.0       99.71       91.27       82.71       74.02       65.20       56.26    
        47.20       38.01       28.69       19.25       9.690       0.000    
  11    10.00       19.56       29.00       38.31       47.49       56.55       65.49       74.30       82.98       91.54    
        99.98       108.3       116.5       124.5       132.5       140.3       148.0       155.5       163.0       170.3    
        177.5       184.5       191.5       198.3       205.0       211.5       217.9       224.3       230.4       236.5    
        242.4       248.2       253.9       259.5       264.9       270.2       275.4       280.5       285.4       290.2    
        294.9       299.5       303.9       308.2       312.4       316.5       320.4       324.2       327.9       331.5    
        334.9       338.2       341.4       344.5       347.4       350.2       352.9       355.4       357.9       360.2    
        362.4       364.4       366.4       368.2       369.9       371.4       372.9       374.2       375.4       376.4    
        377.4       378.2       378.9       379.4       379.9       380.2       380.3       380.4       380.3       380.2    
        379.8       379.4       378.8       378.1       377.3       376.4       375.3       374.1       372.8       371.4    
        369.8       368.1       366.3       364.4       362.3       360.1       357.8       355.4       352.8       350.1    
        347.3       344.4       341.3       338.1       334.8       331.4       327.8       324.1       320.3       316.3    
        312.3       308.1       303.8       299.3       294.8       290.1       285.3       280.3       275.3       270.1    
        264.8       259.3       253.8       248.1       242.2       236.3       230.2       224.1       217.7       211.3    
        204.7       198.0       191.2       184.3       177.2       170.0       162.7       155.3       147.7       140.0    
        132.2       124.3       116.2       108.0       99.71       91.27       82.71       74.02       65.20       56.26    
        47.20       38.01       28.69       19.25       9.690       0.000    
  12    10.00       19.56       29.00       38.31       47.49       56.55       65.49       74.30       82.98       91.54    
        99.98       108.3       116.5       124.5       132.5       140.3       148.0       155.5       163.0       170.3    
        177.5       184.5       191.5       198.3       205.0       211.5       217.9       224.3       230.4       236.5    
        242.4       248.2       253.9       259.5       264.9       270.2       275.4       280.5       285.4       290.2    
        294.9       299.5       303.9       308.2       312.4       316.5       320.4       324.2       327.9       331.5    
        334.9       338.2       341.4       344.5       347.4       350.2       352.9       355.4       357.9       360.2    
        362.4       364.4       366.4       368.2       369.9       371.4       372.9       374.2       375.4       376.4    
        377.4       378.2       378.9       379.4       379.9       380.2       380.3       380.4       380.3       380.2    
        379.8       379.4       378.8       378.1       377.3       376.4       375.3       374.1       372.8       371.4    
        369.8       368.1       366.3       364.4       362.3       360.1       357.8       355.4       352.8       350.1    
        347.3       344.4       341.3       338.1       334.8       331.4       327.8       324.1       320.3       316.3    
        312.3       308.1       303.8       299.3       294.8       290.1       285.3       280.3       275.3       270.1    
        264.8       259.3       253.8       248.1       242.2       236.3       230.2       224.1       217.7       211.3    
        204.7       198.0       191.2       184.3       177.2       170.0       162.7       155.3       147.7       140.0    
        132.2       124.3       116.2       108.0       99.71       91.27       82.71       74.02       65.20       56.26    
        47.20       38.01       28.69       19.25       9.690       0.000    
  13    10.00       19.56       29.00       38.31       47.49       56.55       65.49       74.30       82.98       91.54    
        99.98       108.3       116.5       124.5       132.5       140.3       148.0       155.5       163.0       170.3    
        177.5       184.5       191.5       198.3       205.0       211.5       217.9       224.3       230.4       236.5    
        242.4       248.2       253.9       259.5       264.9       270.2       275.4       280.5       285.4       290.2    
        294.9       299.5       303.9       308.2       312.4       316.5       320.4       324.2       327.9       331.5    
        334.9       338.2       341.4       344.5       347.4       350.2       352.9       355.4       357.9       360.2    
        362.4       364.4       366.4       368.2       369.9       371.4       372.9       374.2       375.4       376.4    
        377.4       378.2       378.9       379.4       379.9       380.2       380.3       380.4       380.3       380.2    
        379.8       379.4       378.8       378.1       377.3       376.4       375.3       374.1       372.8       371.4    
        369.8       368.1       366.3       364.4       362.3       360.1       357.8       355.4       352.8       350.1    
        347.3       344.4       341.3       338.1       334.8       331.4       327.8       324.1       320.3       316.3    
        312.3       308.1       303.8       299.3       294.8       290.1       285.3       280.3       275.3       270.1    
        264.8       259.3       253.8       248.1       242.2       236.3       230.2       224.1       217.7       211.3    
        204.7       198.0       191.2       184.3       177.2       170.0       162.7       155.3       147.7       140.0    
        132.2       124.3       116.2       108.0       99.71       91.27       82.71       74.02       65.20       56.26    
        47.20       38.01       28.69       19.25       9.690       0.000    
  14    10.00       19.56       29.00       38.31       47.49       56.55       65.49       74.30       82.98       91.54    
        99.98       108.3       116.5       124.5       132.5       140.3       148.0       155.5       163.0       170.3    
        177.5       184.5       191.5       198.3       205.0       211.5       217.9       224.3       230.4       236.5    
        242.4       248.2       253.9       259.5       264.9       270.2       275.4       280.5       285.4       290.2    
        294.9       299.5       303.9       308.2       312.4       316.5       320.4       324.2       327.9       331.5    
        334.9       338.2       341.4       344.5       347.4       350.2       352.9       355.4       357.9       360.2    
        362.4       364.4       366.4       368.2       369.9       371.4       372.9       374.2       375.4       376.4    
        377.4       378.2       378.9       379.4       379.9       380.2       380.3       380.4       380.3       380.2    
        379.8       379.4       378.8       378.1       377.3       376.4       375.3       374.1       372.8       371.4    
        369.8       368.1       366.3       364.4       362.3       360.1       357.8       355.4       352.8       350.1    
        347.3       344.4       341.3       338.1       334.8       331.4       327.8       324.1       320.3       316.3    
        312.3       308.1       303.8       299.3       294.8       290.1       285.3       280.3       275.3       270.1    
        264.8       259.3       253.8       248.1       242.2       236.3       230.2       224.1       217.7       211.3    
        204.7       198.0       191.2       184.3       177.2       170.0       162.7       155.3       147.7       140.0    
        132.2       124.3       116.2       108.0       99.71       91.27       82.71       74.02       65.20       56.26    
        47.20       38.01       28.69       19.25       9.690       0.000    
  15    10.00       19.56       29.00       38.31       47.49       56.55       65.49       74.30       82.98       91.54    
        99.98       108.3       116.5       124.5       132.5       140.3       148.0       155.5       163.0       170.3    
        177.5       184.5       191.5       198.3       205.0       211.5       217.9       224.3       230.4       236.5    
        242.4       248.2       253.9       259.5       264.9       270.2       275.4       280.5       285.4       290.2    
        294.9       299.5       303.9       308.2       312.4       316.5       320.4       324.2       327.9       331.5    
        334.9       338.2       341.4       344.5       347.4       350.2       352.9       355.4       357.9       360.2    
        362.4       364.4       366.4       368.2       369.9       371.4       372.9       374.2       375.4       376.4    
        377.4       378.2       378.9       379.4       379.9       380.2       380.3       380.4       380.3       380.2    
        379.8       379.4       378.8       378.1       377.3       376.4       375.3       374.1       372.8       371.4    
        369.8       368.1       366.3       364.4       362.3       360.1       357.8       355.4       352.8       350.1    
        347.3       344.4       341.3       338.1       334.8       331.4       327.8       324.1       320.3       316.3    
        312.3       308.1       303.8       299.3       294.8       290.1       285.3       280.3       275.3       270.1    
        264.8       259.3       253.8       248.1       242.2       236.3       230.2       224.1       217.7       211.3    
        204.7       198.0       191.2       184.3       177.2       170.0       162.7       155.3       147.7       140.0    
        132.2       124.3       116.2       108.0       99.71       91.27       82.71       74.02       65.20       56.26    
        47.20       38.01       28.69       19.25       9.690       0.000    
  16    10.00       19.56       29.00       38.31       47.49       56.55       65.49       74.30       82.98       91.54    
        99.98       108.3       116.5       124.5       132.5       140.3       148.0       155.5       163.0       170.3    
        177.5       184.5       191.5       198.3       205.0       211.5       217.9       224.3       230.4       236.5    
        242.4       248.2       253.9       259.5       264.9       270.2       275.4       280.5       285.4       290.2    
        294.9       299.5       303.9       308.2       312.4       316.5       320.4       324.2       327.9       331.5    
        334.9       338.2       341.4       344.5       347.4       350.2       352.9       355.4       357.9       360.2    
        362.4       364.4       366.4       368.2       369.9       371.4       372.9       374.2       375.4       376.4    
        377.4       378.2       378.9       379.4       379.9       380.2       380.3       380.4       380.3       380.2    
        379.8       379.4       378.8       378.1       377.3       376.4       375.3       374.1       372.8       371.4    
        369.8       368.1       366.3       364.4       362.3       360.1       357.8       355.4       352.8       350.1    
        347.3       344.4       341.3       338.1       334.8       331.4       327.8       324.1       320.3       316.3    
        312.3       308.1       303.8       299.3       294.8       290.1       285.3       280.3       275.3       270.1    
        264.8       259.3       253.8       248.1       242.2       236.3       230.2       224.1       217.7       211.3    
        204.7       198.0       191.2       184.3       177.2       170.0       162.7       155.3       147.7       140.0    
        132.2       124.3       116.2       108.0       99.71       91.27       82.71       74.02       65.20       56.26    
        47.20       38.01       28.69       19.25       9.690       0.000    
  17    10.00       19.56       29.00       38.31       47.49       56.55       65.49       74.30       82.98       91.54    
        99.98       108.3       116.5       124.5       132.5       140.3       148.0       155.5       163.0       170.3    
        177.5       184.5       191.5       198.3       205.0       211.5       217.9       224.3       230.4       236.5    
        242.4       248.2       253.9       259.5       264.9       270.2       275.4       280.5       285.4       290.2    
        294.9       299.5       303.9       308.2       312.4       316.5       320.4       324.2       327.9       331.5    
        334.9       338.2       341.4       344.5       347.4       350.2       352.9       355.4       357.9       360.2    
        362.4       364.4       366.4       368.2       369.9       371.4       372.9       374.2       375.4       376.4    
        377.4       378.2       378.9       379.4       379.9       380.2       380.3       380.4       380.3       380.2    
        379.8       379.4       378.8       378.1       377.3       376.4       375.3       374.1       372.8       371.4    
        369.8       368.1       366.3       364.4       362.3       360.1       357.8       355.4       352.8       350.1    
        347.3       344.4       341.3       338.1       334.8       331.4       327.8       324.1       320.3       316.3    
        312.3       308.1       303.8       299.3       294.8       290.1       285.3       280.3       275.3       270.1    
        264.8       259.3       253.8       248.1       242.2       236.3       230.2       224.1       217.7       211.3    
        204.7       198.0       191.2       184.3       177.2       170.0       162.7       155.3       147.7       140.0    
        132.2       124.3       116.2       108.0       99.71       91.27       82.71       74.02       65.20       56.26    
        47.20       38.01       28.69       19.25       9.690       0.000    
  18    10.00       19.56       29.00       38.31       47.49       56.55       65.49       74.30       82.98       91.54    
        99.98       108.3       116.5       124.5       132.5       140.3       148.0       155.5       163.0       170.3    
        177.5       184.5       191.5       198.3       205.0       211.5       217.9       224.3       230.4       236.5    
        242.4       248.2       253.9       259.5       264.9       270.2       275.4       280.5       285.4       290.2    
        294.9       299.5       303.9       308.2       312.4       316.5       320.4       324.2       327.9       331.5    
        334.9       338.2       341.4       344.5       347.4       350.2       352.9       355.4       357.9       360.2    
        362.4       364.4       366.4       368.2       369.9       371.4       372.9       374.2       375.4       376.4    
        377.4       378.2       378.9       379.4       379.9       380.2       380.3       380.4       380.3       380.2    
        379.8       379.4       378.8       378.1       377.3       376.4       375.3       374.1       372.8       371.4    
        369.8       368.1       366.3       364.4       362.3       360.1       357.8       355.4       352.8       350.1    
        347.3       344.4       341.3       338.1       334.8       331.4       327.8       324.1       320.3       316.3    
        312.3       308.1       303.8       299.3       294.8       290.1       285.3       280.3       275.3       270.1    
        264.8       259.3       253.8       248.1       242.2       236.3       230.2       224.1       217.7       211.3    
        204.7       198.0       191.2       184.3       177.2       170.0       162.7       155.3       147.7       140.0    
        132.2       124.3       116.2       108.0       99.71       91.27       82.71       74.02       65.20       56.26    
        47.20       38.01       28.69       19.25       9.690       0.000    
  19    10.00       19.56       29.00       38.31       47.49       56.55       65.49       74.30       82.98       91.54    
        99.98       108.3       116.5       124.5       132.5       140.3       148.0       155.5       163.0       170.3    
        177.5       184.5       191.5       198.3       205.0       211.5       217.9       224.3       230.4       236.5    
        242.4       248.2       253.9       259.5       264.9       270.2       275.4       280.5       285.4       290.2    
        294.9       299.5       303.9       308.2       312.4       316.5       320.4       324.2       327.9       331.5    
        334.9       338.2       341.4       344.5       347.4       350.2       352.9       355.4       357.9       360.2    
        362.4       364.4       366.4       368.2       369.9       371.4       372.9       374.2       375.4       376.4    
        377.4       378.2       378.9       379.4       379.9       380.2       380.3       380.4       380.3       380.2    
        379.8       379.4       378.8       378.1       377.3       376.4       375.3       374.1       372.8       371.4    
        369.8       368.1       366.3       364.4       362.3       360.1       357.8       355.4       352.8       350.1    
        347.3       344.4       341.3       338.1       334.8       331.4       327.8       324.1       320.3       316.3    
        312.3       308.1       303.8       299.3       294.8       290.1       285.3       280.3       275.3       270.1    
        264.8       259.3       253.8       248.1       242.2       236.3       230.2       224.1       217.7       211.3    
        204.7       198.0       191.2       184.3       177.2       170.0       162.7       155.3       147.7       140.0    
        132.2       124.3       116.2       108.0       99.71       91.27       82.71       74.02       65.20       56.26    
        47.20       38.01       28.69       19.25       9.690       0.000    
  20    10.00       19.56       29.00       38.31       47.49       56.55       65.49       74.30       82.98       91.54    
        99.98       108.3       116.5       124.5       132.5       140.3       148.0       155.5       163.0       170.3    
        177.5       184.5       191.5       198.3       205.0       211.5       217.9       224.3       230.4       236.5    
        242.4       248.2       253.9       259.5       264.9       270.2       275.4       280.5       285.4       290.2    
        294.9       299.5       303.9       308.2       312.4       316.5       320.4       324.2       327.9       331.5    
        334.9       338.2       341.4       344.5       347.4       350.2       352.9       355.4       357.9       360.2    
        362.4       364.4       366.4       368.2       369.9       371.4       372.9       374.2       375.4       376.4    
        377.4       378.2       378.9       379.4       379.9       380.2       380.3       380.4       380.3       380.2    
        379.8       379.4       378.8       378.1       377.3       376.4       375.3       374.1       372.8       371.4    
        369.8       368.1       366.3       364.4       362.3       360.1       357.8       355.4       352.8       350.1    
        347.3       344.4       341.3       338.1       334.8       331.4       327.8       324.1       320.3       316.3    
        312.3       308.1       303.8       299.3       294.8       290.1       285.3       280.3       275.3       270.1    
        264.8       259.3       253.8       248.1       242.2       236.3       230.2       224.1       217.7       211.3    
        204.7       198.0       191.2       184.3       177.2       170.0       162.7       155.3       147.7       140.0    
        132.2       124.3       116.2       108.0       99.71       91.27       82.71       74.02       65.20       56.26    
        47.20       38.01       28.69       19.25       9.690       0.000    
  21    10.00       19.56       29.00       38.31       47.49       56.55       65.49       74.30       82.98       91.54    
        99.98       108.3       116.5       124.5       132.5       140.3       148.0       155.5       163.0       170.3    
        177.5       184.5       191.5       198.3       205.0       211.5       217.9       224.3       230.4       236.5    
        242.4       248.2       253.9       259.5       264.9       270.2       275.4       280.5       285.4       290.2    
        294.9       299.5       303.9       308.2       312.4       316.5       320.4       324.2       327.9       331.5    
        334.9       338.2       341.4       344.5       347.4       350.2       352.9       355.4       357.9       360.2    
        362.4       364.4       366.4       368.2       369.9       371.4       372.9       374.2       375.4       376.4    
        377.4       378.2       378.9       379.4       379.9       380.2       380.3       380.4       380.3       380.2    
        379.8       379.4       378.8       378.1       377.3       376.4       375.3       374.1       372.8       371.4    
        369.8       368.1       366.3       364.4       362.3       360.1       357.8       355.4       352.8       350.1    
        347.3       344.4       341.3       338.1       334.8       331.4       327.8       324.1       320.3       316.3    
        312.3       308.1       303.8       299.3       294.8       290.1       285.3       280.3       275.3       270.1    
        264.8       259.3       253.8       248.1       242.2       236.3       230.2       224.1       217.7       211.3    
        204.7       198.0       191.2       184.3       177.2       170.0       162.7       155.3       147.7       140.0    
        132.2       124.3       116.2       108.0       99.71       91.27       82.71       74.02       65.20       56.26    
        47.20       38.01       28.69       19.25       9.690       0.000    
  22    10.00       19.56       29.00       38.31       47.49       56.55       65.49       74.30       82.98       91.54    
        99.98       108.3       116.5       124.5       132.5       140.3       148.0       155.5       163.0       170.3    
        177.5       184.5       191.5       198.3       205.0       211.5       217.9       224.3       230.4       236.5    
        242.4       248.2       253.9       259.5       264.9       270.2       275.4       280.5       285.4       290.2    
        294.9       299.5       303.9       308.2       312.4       316.5       320.4       324.2       327.9       331.5    
        334.9       338.2       341.4       344.5       347.4       350.2       352.9       355.4       357.9       360.2    
        362.4       364.4       366.4       368.2       369.9       371.4       372.9       374.2       375.4       376.4    
        377.4       378.2       378.9       379.4       379.9       380.2       380.3       380.4       380.3       380.2    
        379.8       379.4       378.8       378.1       377.3       376.4       375.3       374.1       372.8       371.4    
        369.8       368.1       366.3       364.4       362.3       360.1       357.8       355.4       352.8       350.1    
        347.3       344.4       341.3       338.1       334.8       331.4       327.8       324.1       320.3       316.3    
        312.3       308.1       303.8       299.3       294.8       290.1       285.3       280.3       275.3       270.1    
        264.8       259.3       253.8       248.1       242.2       236.3       230.2       224.1       217.7       211.3    
        204.7       198.0       191.2       184.3       177.2       170.0       162.7       155.3       147.7       140.0    
        132.2       124.3       116.2       108.0       99.71       91.27       82.71       74.02       65.20       56.26    
        47.20       38.01       28.69       19.25       9.690       0.000    
  23    10.00       19.56       29.00       38.31       47.49       56.55       65.49       74.30       82.98       91.54    
        99.98       108.3       116.5       124.5       132.5       140.3       148.0       155.5       163.0       170.3    
        177.5       184.5       191.5       198.3       205.0       211.5       217.9       224.3       230.4       236.5    
        242.4       248.2       253.9       259.5       264.9       270.2       275.4       280.5       285.4       290.2    
        294.9       299.5       303.9       308.2       312.4       316.5       320.4       324.2       327.9       331.5    
        334.9       338.2       341.4       344.5       347.4       350.2       352.9       355.4       357.9       360.2    
        362.4       364.4       366.4       368.2       369.9       371.4       372.9       374.2       375.4       376.4    
        377.4       378.2       378.9       379.4       379.9       380.2       380.3       380.4       380.3       380.2    
        379.8       379.4       378.8       378.1       377.3       376.4       375.3       374.1       372.8       371.4    
        369.8       368.1       366.3       364.4       362.3       360.1       357.8       355.4       352.8       350.1    
        347.3       344.4       341.3       338.1       334.8       331.4       327.8       324.1       320.3       316.3    
        312.3       308.1       303.8       299.3       294.8       290.1       285.3       280.3       275.3       270.1    
        264.8       259.3       253.8       248.1       242.2       236.3       230.2       224.1       217.7       211.3    
        204.7       198.0       191.2       184.3       177.2       170.0       162.7       155.3       147.7       140.0    
        132.2       124.3       116.2       108.0       99.71       91.27       82.71       74.02       65.20       56.26    
        47.20       38.01       28.69       19.25       9.690       0.000    
  24    10.00       19.56       29.00       38.31       47.49       56.55       65.49       74.30       82.98       91.54    
        99.98       108.3       116.5       124.5       132.5       140.3       148.0       155.5       163.0       170.3    
        177.5       184.5       191.5       198.3       205.0       211.5       217.9       224.3       230.4       236.5    
        242.4       248.2       253.9       259.5       264.9       270.2       275.4       280.5       285.4       290.2    
        294.9       299.5       303.9       308.2       312.4       316.5       320.4       324.2       327.9       331.5    
        334.9       338.2       341.4       344.5       347.4       350.2       352.9       355.4       357.9       360.2    
        362.4       364.4       366.4       368.2       369.9       371.4       372.9       374.2       375.4       376.4    
        377.4       378.2       378.9       379.4       379.9       380.2       380.3       380.4       380.3       380.2    
        379.8       379.4       378.8       378.1       377.3       376.4       375.3       374.1       372.8       371.4    
        369.8       368.1       366.3       364.4       362.3       360.1       357.8       355.4       352.8       350.1    
        347.3       344.4       341.3       338.1       334.8       331.4       327.8       324.1       320.3       316.3    
        312.3       308.1       303.8       299.3       294.8       290.1       285.3       280.3       275.3       270.1    
        264.8       259.3       253.8       248.1       242.2       236.3       230.2       224.1       217.7       211.3    
        204.7       198.0       191.2       184.3       177.2       170.0       162.7       155.3       147.7       140.0    
        132.2       124.3       116.2       108.0       99.71       91.27       82.71       74.02       65.20       56.26    
        47.20       38.01       28.69       19.25       9.690       0.000    
  25    10.00       19.56       29.00       38.31       47.49       56.55       65.49       74.30       82.98       91.54    
        99.98       108.3       116.5       124.5       132.5       140.3       148.0       155.5       163.0       170.3    
        177.5       184.5       191.5       198.3       205.0       211.5       217.9       224.3       230.4       236.5    
        242.4       248.2       253.9       259.5       264.9       270.2       275.4       280.5       285.4       290.2    
        294.9       299.5       303.9       308.2       312.4       316.5       320.4       324.2       327.9       331.5    
        334.9       338.2       341.4       344.5       347.4       350.2       352.9       355.4       357.9       360.2    
        362.4       364.4       366.4       368.2       369.9       371.4       372.9       374.2       375.4       376.4    
        377.4       378.2       378.9       379.4       379.9       380.2       380.3       380.4       380.3       380.2    
        379.8       379.4       378.8       378.1       377.3       376.4       375.3       374.1       372.8       371.4    
        369.8       368.1       366.3       364.4       362.3       360.1       357.8       355.4       352.8       350.1    
        347.3       344.4       341.3       338.1       334.8       331.4       327.8       324.1       320.3       316.3    
        312.3       308.1       303.8       299.3       294.8       290.1       285.3       280.3       275.3       270.1    
        264.8       259.3       253.8       248.1       242.2       236.3       230.2       224.1       217.7       211.3    
        204.7       198.0       191.2       184.3       177.2       170.0       162.7       155.3       147.7       140.0    
        132.2       124.3       116.2       108.0       99.71       91.27       82.71       74.02       65.20       56.26    
        47.20       38.01       28.69       19.25       9.690       0.000    
  26    10.00       19.56       29.00       38.31       47.49       56.55       65.49       74.30       82.98       91.54    
        99.98       108.3       116.5       124.5       132.5       140.3       148.0       155.5       163.0       170.3    
        177.5       184.5       191.5       198.3       205.0       211.5       217.9       224.3       230.4       236.5    
        242.4       248.2       253.9       259.5       264.9       270.2       275.4       280.5       285.4       290.2    
        294.9       299.5       303.9       308.2       312.4       316.5       320.4       324.2       327.9       331.5    
        334.9       338.2       341.4       344.5       347.4       350.2       352.9       355.4       357.9       360.2    
        362.4       364.4       366.4       368.2       369.9       371.4       372.9       374.2       375.4       376.4    
        377.4       378.2       378.9       379.4       379.9       380.2       380.3       380.4       380.3       380.2    
        379.8       379.4       378.8       378.1       377.3       376.4       375.3       374.1       372.8       371.4    
        369.8       368.1       366.3       364.4       362.3       360.1       357.8       355.4       352.8       350.1    
        347.3       344.4       341.3       338.1       334.8       331.4       327.8       324.1       320.3       316.3    
        312.3       308.1       303.8       299.3       294.8       290.1       285.3       280.3       275.3       270.1    
        264.8       259.3       253.8       248.1       242.2       236.3       230.2       224.1       217.7       211.3    
        204.7       198.0       191.2       184.3       177.2       170.0       162.7       155.3       147.7       140.0    
        132.2       124.3       116.2       108.0       99.71       91.27       82.71       74.02       65.20       56.26    
        47.20       38.01       28.69       19.25       9.690       0.000    
  27    10.00       19.56       29.00       38.31       47.49       56.55       65.49       74.30       82.98       91.54    
        99.98       108.3       116.5       124.5       132.5       140.3       148.0       155.5       163.0       170.3    
        177.5       184.5       191.5       198.3       205.0       211.5       217.9       224.3       230.4       236.5    
        242.4       248.2       253.9       259.5       264.9       270.2       275.4       280.5       285.4       290.2    
        294.9       299.5       303.9       308.2       312.4       316.5       320.4       324.2       327.9       331.5    
        334.9       338.2       341.4       344.5       347.4       350.2       352.9       355.4       357.9       360.2    
        362.4       364.4       366.4       368.2       369.9       371.4       372.9       374.2       375.4       376.4    
        377.4       378.2       378.9       379.4       379.9       380.2       380.3       380.4       380.3       380.2    
        379.8       379.4       378.8       378.1       377.3       376.4       375.3       374.1       372.8       371.4    
        369.8       368.1       366.3       364.4       362.3       360.1       357.8       355.4       352.8       350.1    
        347.3       344.4       341.3       338.1       334.8       331.4       327.8       324.1       320.3       316.3    
        312.3       308.1       303.8       299.3       294.8       290.1       285.3       280.3       275.3       270.1    
        264.8       259.3       253.8       248.1       242.2       236.3       230.2       224.1       217.7       211.3    
        204.7       198.0       191.2       184.3       177.2       170.0       162.7       155.3       147.7       140.0    
        132.2       124.3       116.2       108.0       99.71       91.27       82.71       74.02       65.20       56.26    
        47.20       38.01       28.69       19.25       9.690       0.000    
  28    10.00       19.56       29.00       38.31       47.49       56.55       65.49       74.30       82.98       91.54    
        99.98       108.3       116.5       124.5       132.5       140.3       148.0       155.5       163.0       170.3    
        177.5       184.5       191.5       198.3       205.0       211.5       217.9       224.3       230.4       236.5    
        242.4       248.2       253.9       259.5       264.9       270.2       275.4       280.5       285.4       290.2    
        294.9       299.5       303.9       308.2       312.4       316.5       320.4       324.2       327.9       331.5    
        334.9       338.2       341.4       344.5       347.4       350.2       352.9       355.4       357.9       360.2    
        362.4       364.4       366.4       368.2       369.9       371.4       372.9       374.2       375.4       376.4    
        377.4       378.2       378.9       379.4       379.9       380.2       380.3       380.4       380.3       380.2    
        379.8       379.4       378.8       378.1       377.3       376.4       375.3       374.1       372.8       371.4    
        369.8       368.1       366.3       364.4       362.3       360.1       357.8       355.4       352.8       350.1    
        347.3       344.4       341.3       338.1       334.8       331.4       327.8       324.1       320.3       316.3    
        312.3       308.1       303.8       299.3       294.8       290.1       285.3       280.3       275.3       270.1    
        264.8       259.3       253.8       248.1       242.2       236.3       230.2       224.1       217.7       211.3    
        204.7       198.0       191.2       184.3       177.2       170.0       162.7       155.3       147.7       140.0    
        132.2       124.3       116.2       108.0       99.71       91.27       82.71       74.02       65.20       56.26    
        47.20       38.01       28.69       19.25       9.690       0.000    
  29    10.00       19.56       29.00       38.31       47.49       56.55       65.49       74.30       82.98       91.54    
        99.98       108.3       116.5       124.5       132.5       140.3       148.0       155.5       163.0       170.3    
        177.5       184.5       191.5       198.3       205.0       211.5       217.9       224.3       230.4       236.5    
        242.4       248.2       253.9       259.5       264.9       270.2       275.4       280.5       285.4       290.2    
        294.9       299.5       303.9       308.2       312.4       316.5       320.4       324.2       327.9       331.5    
        334.9       338.2       341.4       344.5       347.4       350.2       352.9       355.4       357.9       360.2    
        362.4       364.4       366.4       368.2       369.9       371.4       372.9       374.2       375.4       376.4    
        377.4       378.2       378.9       379.4       379.9       380.2       380.3       380.4       380.3       380.2    
        379.8       379.4       378.8       378.1       377.3       376.4       375.3       374.1       372.8       371.4    
        369.8       368.1       366.3       364.4       362.3       360.1       357.8       355.4       352.8       350.1    
        347.3       344.4       341.3       338.1       334.8       331.4       327.8       324.1       320.3       316.3    
        312.3       308.1       303.8       299.3       294.8       290.1       285.3       280.3       275.3       270.1    
        264.8       259.3       253.8       248.1       242.2       236.3       230.2       224.1       217.7       211.3    
        204.7       198.0       191.2       184.3       177.2       170.0       162.7       155.3       147.7       140.0    
        132.2       124.3       116.2       108.0       99.71       91.27       82.71       74.02       65.20       56.26    
        47.20       38.01       28.69       19.25       9.690       0.000    
  30    10.00       19.56       29.00       38.31       47.49       56.55       65.49       74.30       82.98       91.54    
        99.98       108.3       116.5       124.5       132.5       140.3       148.0       155.5       163.0       170.3    
        177.5       184.5       191.5       198.3       205.0       211.5       217.9       224.3       230.4       236.5    
        242.4       248.2       253.9       259.5       264.9       270.2       275.4       280.5       285.4       290.2    
        294.9       299.5       303.9       308.2       312.4       316.5       320.4       324.2       327.9       331.5    
        334.9       338.2       341.4       344.5       347.4       350.2       352.9       355.4       357.9       360.2    
        362.4       364.4       366.4       368.2       369.9       371.4       372.9       374.2       375.4       376.4    
        377.4       378.2       378.9       379.4       379.9       380.2       380.3       380.4       380.3       380.2    
        379.8       379.4       378.8       378.1       377.3       376.4       375.3       374.1       372.8       371.4    
        369.8       368.1       366.3       364.4       362.3       360.1       357.8       355.4       352.8       350.1    
        347.3       344.4       341.3       338.1       334.8       331.4       327.8       324.1       320.3       316.3    
        312.3       308.1       303.8       299.3       294.8       290.1       285.3       280.3       275.3       270.1    
        264.8       259.3       253.8       248.1       242.2       236.3       230.2       224.1       217.7       211.3    
        204.7       198.0       191.2       184.3       177.2       170.0       162.7       155.3       147.7       140.0    
        132.2       124.3       116.2       108.0       99.71       91.27       82.71       74.02       65.20       56.26    
        47.20       38.01       28.69       19.25       9.690       0.000    
  31    10.00       19.56       29.00       38.31       47.49       56.55       65.49       74.30       82.98       91.54    
        99.98       108.3       116.5       124.5       132.5       140.3       148.0       155.5       163.0       170.3    
        177.5       184.5       191.5       198.3       205.0       211.5       217.9       224.3       230.4       236.5    
        242.4       248.2       253.9       259.5       264.9       270.2       275.4       280.5       285.4       290.2    
        294.9       299.5       303.9       308.2       312.4       316.5       320.4       324.2       327.9       331.5    
        334.9       338.2       341.4       344.5       347.4       350.2       352.9       355.4       357.9       360.2    
        362.4       364.4       366.4       368.2       369.9       371.4       372.9       374.2       375.4       376.4    
        377.4       378.2       378.9       379.4       379.9       380.2       380.3       380.4       380.3       380.2    
        379.8       379.4       378.8       378.1       377.3       376.4       375.3       374.1       372.8       371.4    
        369.8       368.1       366.3       364.4       362.3       360.1       357.8       355.4       352.8       350.1    
        347.3       344.4       341.3       338.1       334.8       331.4       327.8       324.1       320.3       316.3    
        312.3       308.1       303.8       299.3       294.8       290.1       285.3       280.3       275.3       270.1    
        264.8       259.3       253.8       248.1       242.2       236.3       230.2       224.1       217.7       211.3    
        204.7       198.0       191.2       184.3       177.2       170.0       162.7       155.3       147.7       140.0    
        132.2       124.3       116.2       108.0       99.71       91.27       82.71       74.02       65.20       56.26    
        47.20       38.01       28.69       19.25       9.690       0.000    
  32    10.00       19.56       29.00       38.31       47.49       56.55       65.49       74.30       82.98       91.54    
        99.98       108.3       116.5       124.5       132.5       140.3       148.0       155.5       163.0       170.3    
        177.5       184.5       191.5       198.3       205.0       211.5       217.9       224.3       230.4       236.5    
        242.4       248.2       253.9       259.5       264.9       270.2       275.4       280.5       285.4       290.2    
        294.9       299.5       303.9       308.2       312.4       316.5       320.4       324.2       327.9       331.5    
        334.9       338.2       341.4       344.5       347.4       350.2       352.9       355.4       357.9       360.2    
        362.4       364.4       366.4       368.2       369.9       371.4       372.9       374.2       375.4       376.4    
        377.4       378.2       378.9       379.4       379.9       380.2       380.3       380.4       380.3       380.2    
        379.8       379.4       378.8       378.1       377.3       376.4       375.3       374.1       372.8       371.4    
        369.8       368.1       366.3       364.4       362.3       360.1       357.8       355.4       352.8       350.1    
        347.3       344.4       341.3       338.1       334.8       331.4       327.8       324.1       320.3       316.3    
        312.3       308.1       303.8       299.3       294.8       290.1       285.3       280.3       275.3       270.1    
        264.8       259.3       253.8       248.1       242.2       236.3       230.2       224.1       217.7       211.3    
        204.7       198.0       191.2       184.3       177.2       170.0       162.7       155.3       147.7       140.0    
        132.2       124.3       116.2       108.0       99.71       91.27       82.71       74.02       65.20       56.26    
        47.20       38.01       28.69       19.25       9.690       0.000    
  33    10.00       19.56       29.00       38.31       47.49       56.55       65.49       74.30       82.98       91.54    
        99.98       108.3       116.5       124.5       132.5       140.3       148.0       155.5       163.0       170.3    
        177.5       184.5       191.5       198.3       205.0       211.5       217.9       224.3       230.4       236.5    
        242.4       248.2       253.9       259.5       264.9       270.2       275.4       280.5       285.4       290.2    
        294.9       299.5       303.9       308.2       312.4       316.5       320.4       324.2       327.9       331.5    
        334.9       338.2       341.4       344.5       347.4       350.2       352.9       355.4       357.9       360.2    
        362.4       364.4       366.4       368.2       369.9       371.4       372.9       374.2       375.4       376.4    
        377.4       378.2       378.9       379.4       379.9       380.2       380.3       380.4       380.3       380.2    
        379.8       379.4       378.8       378.1       377.3       376.4       375.3       374.1       372.8       371.4    
        369.8       368.1       366.3       364.4       362.3       360.1       357.8       355.4       352.8       350.1    
        347.3       344.4       341.3       338.1       334.8       331.4       327.8       324.1       320.3       316.3    
        312.3       308.1       303.8       299.3       294.8       290.1       285.3       280.3       275.3       270.1    
        264.8       259.3       253.8       248.1       242.2       236.3       230.2       224.1       217.7       211.3    
        204.7       198.0       191.2       184.3       177.2       170.0       162.7       155.3       147.7       140.0    
        132.2       124.3       116.2       108.0       99.71       91.27       82.71       74.02       65.20       56.26    
        47.20       38.01       28.69       19.25       9.690       0.000    
  34    10.00       19.56       29.00       38.31       47.49       56.55       65.49       74.30       82.98       91.54    
        99.98       108.3       116.5       124.5       132.5       140.3       148.0       155.5       163.0       170.3    
        177.5       184.5       191.5       198.3       205.0       211.5       217.9       224.3       230.4       236.5    
        242.4       248.2       253.9       259.5       264.9       270.2       275.4       280.5       285.4       290.2    
        294.9       299.5       303.9       308.2       312.4       316.5       320.4       324.2       327.9       331.5    
        334.9       338.2       341.4       344.5       347.4       350.2       352.9       355.4       357.9       360.2    
        362.4       364.4       366.4       368.2       369.9       371.4       372.9       374.2       375.4       376.4    
        377.4       378.2       378.9       379.4       379.9       380.2       380.3       380.4       380.3       380.2    
        379.8       379.4       378.8       378.1       377.3       376.4       375.3       374.1       372.8       371.4    
        369.8       368.1       366.3       364.4       362.3       360.1       357.8       355.4       352.8       350.1    
        347.3       344.4       341.3       338.1       334.8       331.4       327.8       324.1       320.3       316.3    
        312.3       308.1       303.8       299.3       294.8       290.1       285.3       280.3       275.3       270.1    
        264.8       259.3       253.8       248.1       242.2       236.3       230.2       224.1       217.7       211.3    
        204.7       198.0       191.2       184.3       177.2       170.0       162.7       155.3       147.7       140.0    
        132.2       124.3       116.2       108.0       99.71       91.27       82.71       74.02       65.20       56.26    
        47.20       38.01       28.69       19.25       9.690       0.000    
  35    10.00       19.56       29.00       38.31       47.49       56.55       65.49       74.30       82.98       91.54    
        99.98       108.3       116.5       124.5       132.5       140.3       148.0       155.5       163.0       170.3    
        177.5       184.5       191.5       198.3       205.0       211.5       217.9       224.3       230.4       236.5    
        242.4       248.2       253.9       259.5       264.9       270.2       275.4       280.5       285.4       290.2    
        294.9       299.5       303.9       308.2       312.4       316.5       320.4       324.2       327.9       331.5    
        334.9       338.2       341.4       344.5       347.4       350.2       352.9       355.4       357.9       360.2    
        362.4       364.4       366.4       368.2       369.9       371.4       372.9       374.2       375.4       376.4    
        377.4       378.2       378.9       379.4       379.9       380.2       380.3       380.4       380.3       380.2    
        379.8       379.4       378.8       378.1       377.3       376.4       375.3       374.1       372.8       371.4    
        369.8       368.1       366.3       364.4       362.3       360.1       357.8       355.4       352.8       350.1    
        347.3       344.4       341.3       338.1       334.8       331.4       327.8       324.1       320.3       316.3    
        312.3       308.1       303.8       299.3       294.8       290.1       285.3       280.3       275.3       270.1    
        264.8       259.3       253.8       248.1       242.2       236.3       230.2       224.1       217.7       211.3    
        204.7       198.0       191.2       184.3       177.2       170.0       162.7       155.3       147.7       140.0    
        132.2       124.3       116.2       108.0       99.71       91.27       82.71       74.02       65.20       56.26    
        47.20       38.01       28.69       19.25       9.690       0.000    
  36    10.00       19.56       29.00       38.31       47.49       56.55       65.49       74.30       82.98       91.54    
        99.98       108.3       116.5       124.5       132.5       140.3       148.0       155.5       163.0       170.3    
        177.5       184.5       191.5       198.3       205.0       211.5       217.9       224.3       230.4       236.5    
        242.4       248.2       253.9       259.5       264.9       270.2       275.4       280.5       285.4       290.2    
        294.9       299.5       303.9       308.2       312.4       316.5       320.4       324.2       327.9       331.5    
        334.9       338.2       341.4       344.5       347.4       350.2       352.9       355.4       357.9       360.2    
        362.4       364.4       366.4       368.2       369.9       371.4       372.9       374.2       375.4       376.4    
        377.4       378.2       378.9       379.4       379.9       380.2       380.3       380.4       380.3       380.2    
        379.8       379.4       378.8       378.1       377.3       376.4       375.3       374.1       372.8       371.4    
        369.8       368.1       366.3       364.4       362.3       360.1       357.8       355.4       352.8       350.1    
        347.3       344.4       341.3       338.1       334.8       331.4       327.8       324.1       320.3       316.3    
        312.3       308.1       303.8       299.3       294.8       290.1       285.3       280.3       275.3       270.1    
        264.8       259.3       253.8       248.1       242.2       236.3       230.2       224.1       217.7       211.3    
        204.7       198.0       191.2       184.3       177.2       170.0       162.7       155.3       147.7       140.0    
        132.2       124.3       116.2       108.0       99.71       91.27       82.71       74.02       65.20       56.26    
        47.20       38.01       28.69       19.25       9.690       0.000    
  37    10.00       19.56       29.00       38.31       47.49       56.55       65.49       74.30       82.98       91.54    
        99.98       108.3       116.5       124.5       132.5       140.3       148.0       155.5       163.0       170.3    
        177.5       184.5       191.5       198.3       205.0       211.5       217.9       224.3       230.4       236.5    
[...]
        132.2       124.3       116.2       108.0       99.71       91.27       82.71       74.02       65.20       56.26    
        47.20       38.01       28.69       19.25       9.690       0.000    
  92    10.00       19.56       29.00       38.31       47.49       56.55       65.49       74.30       82.98       91.54    
        99.98       108.3       116.5       124.5       132.5       140.3       148.0       155.5       163.0       170.3    
        177.5       184.5       191.5       198.3       205.0       211.5       217.9       224.3       230.4       236.5    
        242.4       248.2       253.9       259.5       264.9       270.2       275.4       280.5       285.4       290.2    
        294.9       299.5       303.9       308.2       312.4       316.5       320.4       324.2       327.9       331.5    
        334.9       338.2       341.4       344.5       347.4       350.2       352.9       355.4       357.9       360.2    
        362.4       364.4       366.4       368.2       369.9       371.4       372.9       374.2       375.4       376.4    
        377.4       378.2       378.9       379.4       379.9       380.2       380.3       380.4       380.3       380.2    
        379.8       379.4       378.8       378.1       377.3       376.4       375.3       374.1       372.8       371.4    
        369.8       368.1       366.3       364.4       362.3       360.1       357.8       355.4       352.8       350.1    
        347.3       344.4       341.3       338.1       334.8       331.4       327.8       324.1       320.3       316.3    
        312.3       308.1       303.8       299.3       294.8       290.1       285.3       280.3       275.3       270.1    
        264.8       259.3       253.8       248.1       242.2       236.3       230.2       224.1       217.7       211.3    
        204.7       198.0       191.2       184.3       177.2       170.0       162.7       155.3       147.7       140.0    
        132.2       124.3       116.2       108.0       99.71       91.27       82.71       74.02       65.20       56.26    
        47.20       38.01       28.69       19.25       9.690       0.000    
  93    10.00       19.56       29.00       38.31       47.49       56.55       65.49       74.30       82.98       91.54    
        99.98       108.3       116.5       124.5       132.5       140.3       148.0       155.5       163.0       170.3    
        177.5       184.5       191.5       198.3       205.0       211.5       217.9       224.3       230.4       236.5    
        242.4       248.2       253.9       259.5       264.9       270.2       275.4       280.5       285.4       290.2    
        294.9       299.5       303.9       308.2       312.4       316.5       320.4       324.2       327.9       331.5    
        334.9       338.2       341.4       344.5       347.4       350.2       352.9       355.4       357.9       360.2    
        362.4       364.4       366.4       368.2       369.9       371.4       372.9       374.2       375.4       376.4    
        377.4       378.2       378.9       379.4       379.9       380.2       380.3       380.4       380.3       380.2    
        379.8       379.4       378.8       378.1       377.3       376.4       375.3       374.1       372.8       371.4    
        369.8       368.1       366.3       364.4       362.3       360.1       357.8       355.4       352.8       350.1    
        347.3       344.4       341.3       338.1       334.8       331.4       327.8       324.1       320.3       316.3    
        312.3       308.1       303.8       299.3       294.8       290.1       285.3       280.3       275.3       270.1    
        264.8       259.3       253.8       248.1       242.2       236.3       230.2       224.1       217.7       211.3    
        204.7       198.0       191.2       184.3       177.2       170.0       162.7       155.3       147.7       140.0    
        132.2       124.3       116.2       108.0       99.71       91.27       82.71       74.02       65.20       56.26    
        47.20       38.01       28.69       19.25       9.690       0.000    
  94    10.00       19.56       29.00       38.31       47.49       56.55       65.49       74.30       82.98       91.54    
        99.98       108.3       116.5       124.5       132.5       140.3       148.0       155.5       163.0       170.3    
        177.5       184.5       191.5       198.3       205.0       211.5       217.9       224.3       230.4       236.5    
        242.4       248.2       253.9       259.5       264.9       270.2       275.4       280.5       285.4       290.2    
        294.9       299.5       303.9       308.2       312.4       316.5       320.4       324.2       327.9       331.5    
        334.9       338.2       341.4       344.5       347.4       350.2       352.9       355.4       357.9       360.2    
        362.4       364.4       366.4       368.2       369.9       371.4       372.9       374.2       375.4       376.4    
        377.4       378.2       378.9       379.4       379.9       380.2       380.3       380.4       380.3       380.2    
        379.8       379.4       378.8       378.1       377.3       376.4       375.3       374.1       372.8       371.4    
        369.8       368.1       366.3       364.4       362.3       360.1       357.8       355.4       352.8       350.1    
        347.3       344.4       341.3       338.1       334.8       331.4       327.8       324.1       320.3       316.3    
        312.3       308.1       303.8       299.3       294.8       290.1       285.3       280.3       275.3       270.1    
        264.8       259.3       253.8       248.1       242.2       236.3       230.2       224.1       217.7       211.3    
        204.7       198.0       191.2       184.3       177.2       170.0       162.7       155.3       147.7       140.0    
        132.2       124.3       116.2       108.0       99.71       91.27       82.71       74.02       65.20       56.26    
        47.20       38.01       28.69       19.25       9.690       0.000    
  95    10.00       19.56       29.00       38.31       47.49       56.55       65.49       74.30       82.98       91.54    
        99.98       108.3       116.5       124.5       132.5       140.3       148.0       155.5       163.0       170.3    
        177.5       184.5       191.5       198.3       205.0       211.5       217.9       224.3       230.4       236.5    
        242.4       248.2       253.9       259.5       264.9       270.2       275.4       280.5       285.4       290.2    
        294.9       299.5       303.9       308.2       312.4       316.5       320.4       324.2       327.9       331.5    
        334.9       338.2       341.4       344.5       347.4       350.2       352.9       355.4       357.9       360.2    
        362.4       364.4       366.4       368.2       369.9       371.4       372.9       374.2       375.4       376.4    
        377.4       378.2       378.9       379.4       379.9       380.2       380.3       380.4       380.3       380.2    
        379.8       379.4       378.8       378.1       377.3       376.4       375.3       374.1       372.8       371.4    
        369.8       368.1       366.3       364.4       362.3       360.1       357.8       355.4       352.8       350.1    
        347.3       344.4       341.3       338.1       334.8       331.4       327.8       324.1       320.3       316.3    
        312.3       308.1       303.8       299.3       294.8       290.1       285.3       280.3       275.3       270.1    
        264.8       259.3       253.8       248.1       242.2       236.3       230.2       224.1       217.7       211.3    
        204.7       198.0       191.2       184.3       177.2       170.0       162.7       155.3       147.7       140.0    
        132.2       124.3       116.2       108.0       99.71       91.27       82.71       74.02       65.20       56.26    
        47.20       38.01       28.69       19.25       9.690       0.000    
  96    10.00       19.56       29.00       38.31       47.49       56.55       65.49       74.30       82.98       91.54    
        99.98       108.3       116.5       124.5       132.5       140.3       148.0       155.5       163.0       170.3    
        177.5       184.5       191.5       198.3       205.0       211.5       217.9       224.3       230.4       236.5    
        242.4       248.2       253.9       259.5       264.9       270.2       275.4       280.5       285.4       290.2    
        294.9       299.5       303.9       308.2       312.4       316.5       320.4       324.2       327.9       331.5    
        334.9       338.2       341.4       344.5       347.4       350.2       352.9       355.4       357.9       360.2    
        362.4       364.4       366.4       368.2       369.9       371.4       372.9       374.2       375.4       376.4    
        377.4       378.2       378.9       379.4       379.9       380.2       380.3       380.4       380.3       380.2    
        379.8       379.4       378.8       378.1       377.3       376.4       375.3       374.1       372.8       371.4    
        369.8       368.1       366.3       364.4       362.3       360.1       357.8       355.4       352.8       350.1    
        347.3       344.4       341.3       338.1       334.8       331.4       327.8       324.1       320.3       316.3    
        312.3       308.1       303.8       299.3       294.8       290.1       285.3       280.3       275.3       270.1    
        264.8       259.3       253.8       248.1       242.2       236.3       230.2       224.1       217.7       211.3    
        204.7       198.0       191.2       184.3       177.2       170.0       162.7       155.3       147.7       140.0    
        132.2       124.3       116.2       108.0       99.71       91.27       82.71       74.02       65.20       56.26    
        47.20       38.01       28.69       19.25       9.690       0.000    
  97    10.00       19.56       29.00       38.31       47.49       56.55       65.49       74.30       82.98       91.54    
        99.98       108.3       116.5       124.5       132.5       140.3       148.0       155.5       163.0       170.3    
        177.5       184.5       191.5       198.3       205.0       211.5       217.9       224.3       230.4       236.5    
        242.4       248.2       253.9       259.5       264.9       270.2       275.4       280.5       285.4       290.2    
        294.9       299.5       303.9       308.2       312.4       316.5       320.4       324.2       327.9       331.5    
        334.9       338.2       341.4       344.5       347.4       350.2       352.9       355.4       357.9       360.2    
        362.4       364.4       366.4       368.2       369.9       371.4       372.9       374.2       375.4       376.4    
        377.4       378.2       378.9       379.4       379.9       380.2       380.3       380.4       380.3       380.2    
        379.8       379.4       378.8       378.1       377.3       376.4       375.3       374.1       372.8       371.4    
        369.8       368.1       366.3       364.4       362.3       360.1       357.8       355.4       352.8       350.1    
        347.3       344.4       341.3       338.1       334.8       331.4       327.8       324.1       320.3       316.3    
        312.3       308.1       303.8       299.3       294.8       290.1       285.3       280.3       275.3       270.1    
        264.8       259.3       253.8       248.1       242.2       236.3       230.2       224.1       217.7       211.3    
        204.7       198.0       191.2       184.3       177.2       170.0       162.7       155.3       147.7       140.0    
        132.2       124.3       116.2       108.0       99.71       91.27       82.71       74.02       65.20       56.26    
        47.20       38.01       28.69       19.25       9.690       0.000    
  98    10.00       19.56       29.00       38.31       47.49       56.55       65.49       74.30       82.98       91.54    
        99.98       108.3       116.5       124.5       132.5       140.3       148.0       155.5       163.0       170.3    
        177.5       184.5       191.5       198.3       205.0       211.5       217.9       224.3       230.4       236.5    
        242.4       248.2       253.9       259.5       264.9       270.2       275.4       280.5       285.4       290.2    
        294.9       299.5       303.9       308.2       312.4       316.5       320.4       324.2       327.9       331.5    
        334.9       338.2       341.4       344.5       347.4       350.2       352.9       355.4       357.9       360.2    
        362.4       364.4       366.4       368.2       369.9       371.4       372.9       374.2       375.4       376.4    
        377.4       378.2       378.9       379.4       379.9       380.2       380.3       380.4       380.3       380.2    
        379.8       379.4       378.8       378.1       377.3       376.4       375.3       374.1       372.8       371.4    
        369.8       368.1       366.3       364.4       362.3       360.1       357.8       355.4       352.8       350.1    
        347.3       344.4       341.3       338.1       334.8       331.4       327.8       324.1       320.3       316.3    
        312.3       308.1       303.8       299.3       294.8       290.1       285.3       280.3       275.3       270.1    
        264.8       259.3       253.8       248.1       242.2       236.3       230.2       224.1       217.7       211.3    
        204.7       198.0       191.2       184.3       177.2       170.0       162.7       155.3       147.7       140.0    
        132.2       124.3       116.2       108.0       99.71       91.27       82.71       74.02       65.20       56.26    
        47.20       38.01       28.69       19.25       9.690       0.000    
  99    10.00       19.56       29.00       38.31       47.49       56.55       65.49       74.30       82.98       91.54    
        99.98       108.3       116.5       124.5       132.5       140.3       148.0       155.5       163.0       170.3    
        177.5       184.5       191.5       198.3       205.0       211.5       217.9       224.3       230.4       236.5    
        242.4       248.2       253.9       259.5       264.9       270.2       275.4       280.5       285.4       290.2    
        294.9       299.5       303.9       308.2       312.4       316.5       320.4       324.2       327.9       331.5    
        334.9       338.2       341.4       344.5       347.4       350.2       352.9       355.4       357.9       360.2    
        362.4       364.4       366.4       368.2       369.9       371.4       372.9       374.2       375.4       376.4    
        377.4       378.2       378.9       379.4       379.9       380.2       380.3       380.4       380.3       380.2    
        379.8       379.4       378.8       378.1       377.3       376.4       375.3       374.1       372.8       371.4    
        369.8       368.1       366.3       364.4       362.3       360.1       357.8       355.4       352.8       350.1    
        347.3       344.4       341.3       338.1       334.8       331.4       327.8       324.1       320.3       316.3    
        312.3       308.1       303.8       299.3       294.8       290.1       285.3       280.3       275.3       270.1    
        264.8       259.3       253.8       248.1       242.2       236.3       230.2       224.1       217.7       211.3    
        204.7       198.0       191.2       184.3       177.2       170.0       162.7       155.3       147.7       140.0    
        132.2       124.3       116.2       108.0       99.71       91.27       82.71       74.02       65.20       56.26    
        47.20       38.01       28.69       19.25       9.690       0.000    
 100    10.00       19.56       29.00       38.31       47.49       56.55       65.49       74.30       82.98       91.54    
        99.98       108.3       116.5       124.5       132.5       140.3       148.0       155.5       163.0       170.3    
        177.5       184.5       191.5       198.3       205.0       211.5       217.9       224.3       230.4       236.5    
        242.4       248.2       253.9       259.5       264.9       270.2       275.4       280.5       285.4       290.2    
        294.9       299.5       303.9       308.2       312.4       316.5       320.4       324.2       327.9       331.5    
        334.9       338.2       341.4       344.5       347.4       350.2       352.9       355.4       357.9       360.2    
        362.4       364.4       366.4       368.2       369.9       371.4       372.9       374.2       375.4       376.4    
        377.4       378.2       378.9       379.4       379.9       380.2       380.3       380.4       380.3       380.2    
        379.8       379.4       378.8       378.1       377.3       376.4       375.3       374.1       372.8       371.4    
        369.8       368.1       366.3       364.4       362.3       360.1       357.8       355.4       352.8       350.1    
        347.3       344.4       341.3       338.1       334.8       331.4       327.8       324.1       320.3       316.3    
        312.3       308.1       303.8       299.3       294.8       290.1       285.3       280.3       275.3       270.1    
        264.8       259.3       253.8       248.1       242.2       236.3       230.2       224.1       217.7       211.3    
        204.7       198.0       191.2       184.3       177.2       170.0       162.7       155.3       147.7       140.0    
        132.2       124.3       116.2       108.0       99.71       91.27       82.71       74.02       65.20       56.26    
        47.20       38.01       28.69       19.25       9.690       0.000    

 HEAD WILL BE SAVED ON UNIT   51 AT END OF TIME STEP    1, STRESS PERIOD    1
1
  VOLUMETRIC BUDGET FOR ENTIRE MODEL AT END OF TIME STEP    1, STRESS PERIOD   1
  ------------------------------------------------------------------------------

     CUMULATIVE VOLUMES      L**3       RATES FOR THIS TIME STEP      L**3/T
     ------------------                 ------------------------

           IN:                                      IN:
           ---                                      ---
             STORAGE =           0.0000               STORAGE =           0.0000
       CONSTANT HEAD =           0.0000         CONSTANT HEAD =           0.0000
            RECHARGE =       96250.0000              RECHARGE =       96250.0000

            TOTAL IN =       96250.0000              TOTAL IN =       96250.0000

          OUT:                                     OUT:
          ----                                     ----
             STORAGE =           0.0000               STORAGE =           0.0000
       CONSTANT HEAD =       96250.0000         CONSTANT HEAD =       96250.0000
            RECHARGE =           0.0000              RECHARGE =           0.0000

           TOTAL OUT =       96250.0000             TOTAL OUT =       96250.0000

            IN - OUT =           0.0000              IN - OUT =           0.0000

 PERCENT DISCREPANCY =           0.00     PERCENT DISCREPANCY =           0.00






         TIME SUMMARY AT END OF TIME STEP    1 IN STRESS PERIOD    1
                    SECONDS     MINUTES      HOURS       DAYS        YEARS
                    -----------------------------------------------------------
   TIME STEP LENGTH  86400.      1440.0      24.000      1.0000     2.73785E-03
 STRESS PERIOD TIME  86400.      1440.0      24.000      1.0000     2.73785E-03
         TOTAL TIME  86400.      1440.0      24.000      1.0000     2.73785E-03
1

 Run end date and time (yyyy/mm/dd hh:mm:ss): 2020/04/01 17:02:54
 Elapsed run time:  0.131 Seconds

