                                  MODFLOW-2005     
      U.S. GEOLOGICAL SURVEY MODULAR FINITE-DIFFERENCE GROUND-WATER FLOW MODEL
                            VERSION 1.12.00 2/3/2017

 LIST FILE: my_model.list
                         UNIT    2

 OPENING my_model.dis
 FILE TYPE:DIS   UNIT   11   STATUS:OLD    
 FORMAT:FORMATTED              ACCESS:SEQUENTIAL          

 OPENING my_model.bas
 FILE TYPE:BAS6   UNIT   13   STATUS:OLD    
 FORMAT:FORMATTED              ACCESS:SEQUENTIAL          

 OPENING my_model.lpf
 FILE TYPE:LPF   UNIT   15   STATUS:OLD    
 FORMAT:FORMATTED              ACCESS:SEQUENTIAL          

 OPENING my_model.rch
 FILE TYPE:RCH   UNIT   19   STATUS:OLD    
 FORMAT:FORMATTED              ACCESS:SEQUENTIAL          

 OPENING my_model.riv
 FILE TYPE:RIV   UNIT   18   STATUS:OLD    
 FORMAT:FORMATTED              ACCESS:SEQUENTIAL          

 OPENING my_model.wel
 FILE TYPE:WEL   UNIT   20   STATUS:OLD    
 FORMAT:FORMATTED              ACCESS:SEQUENTIAL          

 OPENING my_model.oc
 FILE TYPE:OC   UNIT   14   STATUS:OLD    
 FORMAT:FORMATTED              ACCESS:SEQUENTIAL          

 OPENING my_model.pcg
 FILE TYPE:PCG   UNIT   27   STATUS:OLD    
 FORMAT:FORMATTED              ACCESS:SEQUENTIAL          

 OPENING my_model.cbc
 FILE TYPE:DATA(BINARY)   UNIT    1   STATUS:REPLACE
 FORMAT:BINARY                 ACCESS:SEQUENTIAL          

 OPENING my_model.hds
 FILE TYPE:DATA(BINARY)   UNIT   51   STATUS:REPLACE
 FORMAT:BINARY                 ACCESS:SEQUENTIAL          

 BAS -- BASIC PACKAGE, VERSION 7, 5/2/2005 INPUT READ FROM UNIT   13
 
 MODFLOW was compiled using mixed precision
 Precision of REAL variables:           6
 Precision of DOUBLE PRECISION variables:          15

 DISCRETIZATION INPUT DATA READ FROM UNIT   11
 # DIS package for  MODFLOW-2005, generated by Flopy.
    1 LAYERS       192 ROWS        92 COLUMNS
    1 STRESS PERIOD(S) IN SIMULATION
 MODEL TIME UNIT IS DAYS
 MODEL LENGTH UNIT IS FEET
  Confining bed flag for each layer:
   0

                     DELR =   2500.00    

                     DELC =   2500.00    

 TOP ELEVATION OF LAYER 1 =   0.00000    

   MODEL LAYER BOTTOM EL. =  -50.0000     FOR LAYER   1


 STRESS PERIOD     LENGTH       TIME STEPS     MULTIPLIER FOR DELT    SS FLAG
 ----------------------------------------------------------------------------
        1         1.000000          1                    1.000         SS

 STEADY-STATE SIMULATION



 
 # BAS6 package for  MODFLOW-2005, generated by Flopy.                           
 THE FREE FORMAT OPTION HAS BEEN SELECTED



                     BOUNDARY ARRAY FOR LAYER   1
 READING ON UNIT   13 WITH FORMAT: (92I10)             

 AQUIFER HEAD WILL BE SET TO  -999.99     AT ALL NO-FLOW NODES (IBOUND=0).



                       INITIAL HEAD FOR LAYER   1
 READING ON UNIT   13 WITH FORMAT: (92E15.6)           
 # OC package for  MODFLOW-2005, generated by Flopy.

 OUTPUT CONTROL IS SPECIFIED ONLY AT TIME STEPS FOR WHICH OUTPUT IS DESIRED
 COMPACT CELL-BY-CELL BUDGET FILES WILL BE WRITTEN
 AUXILIARY DATA WILL BE SAVED IN CELL-BY-CELL BUDGET FILES
 HEAD PRINT FORMAT CODE IS   0    DRAWDOWN PRINT FORMAT CODE IS   0
 HEADS WILL BE SAVED ON UNIT   51    DRAWDOWNS WILL BE SAVED ON UNIT    0

 LPF -- LAYER-PROPERTY FLOW PACKAGE, VERSION 7, 5/2/2005
         INPUT READ FROM UNIT   15
 # LPF package for  MODFLOW-2005, generated by Flopy.
 CELL-BY-CELL FLOWS WILL BE SAVED ON UNIT    1
 HEAD AT CELLS THAT CONVERT TO DRY= -1.00000E+30
 No named parameters

   LAYER FLAGS:
 LAYER       LAYTYP        LAYAVG         CHANI        LAYVKA        LAYWET
 ---------------------------------------------------------------------------
    1             1             0     1.000E+00             0             0

   INTERPRETATION OF LAYER FLAGS:
                        INTERBLOCK     HORIZONTAL    DATA IN
         LAYER TYPE   TRANSMISSIVITY   ANISOTROPY   ARRAY VKA   WETTABILITY
 LAYER      (LAYTYP)      (LAYAVG)       (CHANI)      (LAYVKA)      (LAYWET)
 ---------------------------------------------------------------------------
    1   CONVERTIBLE      HARMONIC     1.000E+00    VERTICAL K  NON-WETTABLE

 WETTING CAPABILITY IS NOT ACTIVE IN ANY LAYER



              HYD. COND. ALONG ROWS FOR LAYER   1
 READING ON UNIT   15 WITH FORMAT: (92E15.6)           



                VERTICAL HYD. COND. FOR LAYER   1
 READING ON UNIT   15 WITH FORMAT: (92E15.6)           

 WEL -- WELL PACKAGE, VERSION 7, 5/2/2005 INPUT READ FROM UNIT   20
 # WEL package for  MODFLOW-2005, generated by Flopy.
 No named parameters
 MAXIMUM OF      1 ACTIVE WELLS AT ONE TIME


     0 Well parameters

 RIV -- RIVER PACKAGE, VERSION 7, 5/2/2005 INPUT READ FROM UNIT   18
 # RIV package for  MODFLOW-2005, generated by Flopy.
 No named parameters
 MAXIMUM OF    328 ACTIVE RIVER REACHES AT ONE TIME


     0 River parameters

 RCH -- RECHARGE PACKAGE, VERSION 7, 5/2/2005 INPUT READ FROM UNIT   19
 # RCH package for  MODFLOW-2005, generated by Flopy.
 No named parameters
 OPTION 3 -- RECHARGE TO HIGHEST ACTIVE NODE IN EACH VERTICAL COLUMN


     0 Recharge parameters

 PCG -- CONJUGATE-GRADIENT SOLUTION PACKAGE, VERSION 7, 5/2/2005
 # PCG package for  MODFLOW-2005, generated by Flopy.
 MAXIMUM OF     50 CALLS OF SOLUTION ROUTINE
 MAXIMUM OF     30 INTERNAL ITERATIONS PER CALL TO SOLUTION ROUTINE
 MATRIX PRECONDITIONING TYPE :    1



                                    SOLUTION BY THE CONJUGATE-GRADIENT METHOD
                                   -------------------------------------------
                    MAXIMUM NUMBER OF CALLS TO PCG ROUTINE =       50
                        MAXIMUM ITERATIONS PER CALL TO PCG =       30
                               MATRIX PRECONDITIONING TYPE =        1
        RELAXATION FACTOR (ONLY USED WITH PRECOND. TYPE 1) =    0.10000E+01
 PARAMETER OF POLYNOMIAL PRECOND. = 2 (2) OR IS CALCULATED :        0
                         HEAD CHANGE CRITERION FOR CLOSURE =    0.10000E-04
                     RESIDUAL CHANGE CRITERION FOR CLOSURE =    0.10000E-04
            PCG HEAD AND RESIDUAL CHANGE PRINTOUT INTERVAL =      999
     PRINTING FROM SOLVER IS LIMITED(1) OR SUPPRESSED (>1) =        3
                            STEADY-STATE DAMPING PARAMETER =    0.10000E+01
                               TRANSIENT DAMPING PARAMETER =    0.10000E+01
1
                            STRESS PERIOD NO.    1, LENGTH =   1.000000    
                            -----------------------------------------------

                              NUMBER OF TIME STEPS =     1

                               MULTIPLIER FOR DELT =     1.000

                            INITIAL TIME STEP SIZE =   1.000000    

 WELL NO.  LAYER   ROW   COL   STRESS RATE         
 --------------------------------------------------
      1      1     11     21     -0.1330E+06

      1 WELL 

 REACH NO.  LAYER   ROW   COL     STAGE      CONDUCTANCE     BOTTOM EL.         
 -------------------------------------------------------------------------------
      1      1      1      1       530.1           5000.           527.1    
      2      1      1      2       520.3           5000.           517.3    
      3      1      1     52       548.8           5000.           545.8    
      4      1      1     53       548.6           5000.           545.6    
      5      1      1     54       548.6           5000.           545.6    
      6      1      1     55       543.3           5000.           540.3    
      7      1      1     56       540.3           5000.           537.3    
      8      1      1     57       537.3           5000.           534.3    
      9      1      1     58       537.3           5000.           534.3    
     10      1      1     76       518.8           5000.           515.8    
     11      1      1     77       518.8           5000.           515.8    
     12      1      1     79       518.8           5000.           515.8    
     13      1      1     80       518.8           5000.           515.8    
     14      1      1     81       518.8           5000.           515.8    
     15      1      1     82       518.8           5000.           515.8    
     16      1      1     83       518.8           5000.           515.8    
     17      1      1     84       518.8           5000.           515.8    
     18      1      1     85       518.8           5000.           515.8    
     19      1      1     90       536.8           5000.           533.8    
     20      1      1     91       538.1           5000.           535.1    
     21      1      1     92       538.3           5000.           535.3    
     22      1      2      1       530.2           5000.           527.2    
     23      1      2     49       558.7           5000.           555.7    
     24      1      2     50       557.8           5000.           554.8    
     25      1      2     52       549.4           5000.           546.4    
     26      1      2     54       548.5           5000.           545.5    
     27      1      2     55       543.8           5000.           540.8    
     28      1      2     56       539.7           5000.           536.7    
     29      1      2     57       539.7           5000.           536.7    
     30      1      2     75       518.8           5000.           515.8    
     31      1      2     76       518.8           5000.           515.8    
     32      1      2     80       518.8           5000.           515.8    
     33      1      2     85       518.8           5000.           515.8    
     34      1      2     89       536.8           5000.           533.8    
     35      1      2     90       536.8           5000.           533.8    
     36      1      2     92       538.3           5000.           535.3    
     37      1      3     43       571.0           5000.           568.0    
     38      1      3     44       568.3           5000.           565.3    
     39      1      3     45       567.5           5000.           564.5    
     40      1      3     46       567.5           5000.           564.5    
     41      1      3     47       567.5           5000.           564.5    
     42      1      3     48       563.4           5000.           560.4    
     43      1      3     49       558.6           5000.           555.6    
     44      1      3     50       557.7           5000.           554.7    
     45      1      3     51       556.9           5000.           553.9    
     46      1      3     52       556.7           5000.           553.7    
     47      1      3     75       518.8           5000.           515.8    
     48      1      3     79       518.8           5000.           515.8    
     49      1      3     80       518.8           5000.           515.8    
     50      1      3     85       518.8           5000.           515.8    
     51      1      3     86       528.5           5000.           525.5    
     52      1      3     87       528.5           5000.           525.5    
     53      1      3     88       528.5           5000.           525.5    
     54      1      3     89       536.8           5000.           533.8    
     55      1      4     40       584.5           5000.           581.5    
     56      1      4     41       577.9           5000.           574.9    
     57      1      4     42       576.5           5000.           573.5    
     58      1      4     43       576.3           5000.           573.3    
     59      1      4     74       518.8           5000.           515.8    
     60      1      4     75       518.8           5000.           515.8    
     61      1      4     79       518.8           5000.           515.8    
     62      1      4     80       518.8           5000.           515.8    
     63      1      4     85       528.5           5000.           525.5    
     64      1      4     86       528.5           5000.           525.5    
     65      1      5     36       594.5           5000.           591.5    
     66      1      5     37       588.9           5000.           585.9    
     67      1      5     38       587.0           5000.           584.0    
     68      1      5     39       584.5           5000.           581.5    
     69      1      5     40       584.5           5000.           581.5    
     70      1      5     74       521.9           5000.           518.9    
     71      1      5     79       518.8           5000.           515.8    
     72      1      5     80       518.8           5000.           515.8    
     73      1      5     85       528.7           5000.           525.7    
     74      1      5     86       528.7           5000.           525.7    
     75      1      5     87       528.7           5000.           525.7    
     76      1      6     35       598.2           5000.           595.2    
     77      1      6     36       594.5           5000.           591.5    
     78      1      6     73       527.0           5000.           524.0    
     79      1      6     74       525.3           5000.           522.3    
     80      1      6     78       518.8           5000.           515.8    
     81      1      6     79       518.8           5000.           515.8    
     82      1      6     87       528.7           5000.           525.7    
     83      1      6     88       528.7           5000.           525.7    
     84      1      6     89       528.7           5000.           525.7    
     85      1      6     90       528.7           5000.           525.7    
     86      1      6     91       536.4           5000.           533.4    
     87      1      7     14       587.0           5000.           584.0    
     88      1      7     15       588.7           5000.           585.7    
     89      1      7     16       588.7           5000.           585.7    
     90      1      7     17       588.9           5000.           585.9    
     91      1      7     18       589.0           5000.           586.0    
     92      1      7     19       597.6           5000.           594.6    
     93      1      7     20       598.7           5000.           595.7    
     94      1      7     21       598.8           5000.           595.8    
     95      1      7     34       600.8           5000.           597.8    
     96      1      7     35       598.2           5000.           595.2    
     97      1      7     73       528.7           5000.           525.7    
     98      1      7     77       518.8           5000.           515.8    
     99      1      7     78       518.8           5000.           515.8    
    100      1      7     88       532.7           5000.           529.7    
    101      1      7     91       538.5           5000.           535.5    
    102      1      7     92       538.7           5000.           535.7    
    103      1      8      1       549.9           5000.           546.9    
    104      1      8      2       551.5           5000.           548.5    
    105      1      8      3       551.5           5000.           548.5    
    106      1      8     12       578.9           5000.           575.9    
    107      1      8     13       578.9           5000.           575.9    
    108      1      8     14       583.9           5000.           580.9    
    109      1      8     34       600.9           5000.           597.9    
    110      1      8     73       535.3           5000.           532.3    
    111      1      8     74       557.7           5000.           554.7    
    112      1      8     77       518.8           5000.           515.8    
    113      1      8     78       518.8           5000.           515.8    
    114      1      8     88       537.5           5000.           534.5    
    115      1      8     89       538.7           5000.           535.7    
    116      1      8     91       538.5           5000.           535.5    
    117      1      8     92       538.7           5000.           535.7    
    118      1      9      3       551.5           5000.           548.5    
    119      1      9      4       551.5           5000.           548.5    
    120      1      9      5       551.6           5000.           548.6    
    121      1      9      6       560.4           5000.           557.4    
    122      1      9      7       560.4           5000.           557.4    
    123      1      9      8       560.4           5000.           557.4    
    124      1      9      9       569.5           5000.           566.5    
    125      1      9     10       569.5           5000.           566.5    
    126      1      9     11       573.4           5000.           570.4    
    127      1      9     12       574.5           5000.           571.5    
    128      1      9     34       606.3           5000.           603.3    
    129      1      9     73       557.7           5000.           554.7    
    130      1      9     74       557.7           5000.           554.7    
    131      1      9     76       518.8           5000.           515.8    
    132      1      9     77       518.8           5000.           515.8    
    133      1      9     89       538.7           5000.           535.7    
    134      1      9     91       538.7           5000.           535.7    
    135      1     10      8       569.5           5000.           566.5    
    136      1     10      9       569.5           5000.           566.5    
    137      1     10     73       557.7           5000.           554.7    
    138      1     10     76       518.8           5000.           515.8    
    139      1     10     77       518.8           5000.           515.8    
    140      1     10     89       538.7           5000.           535.7    
    141      1     10     90       538.7           5000.           535.7    
    142      1     10     91       538.7           5000.           535.7    
    143      1     10     92       538.7           5000.           535.7    
    144      1     11     73       557.7           5000.           554.7    
    145      1     11     74       557.7           5000.           554.7    
    146      1     11     76       518.8           5000.           515.8    
    147      1     11     77       518.8           5000.           515.8    
    148      1     12     74       557.7           5000.           554.7    
    149      1     12     75       520.7           5000.           517.7    
    150      1     12     76       518.8           5000.           515.8    
    151      1     12     77       518.8           5000.           515.8    
    152      1     12     78       518.8           5000.           515.8    
    153      1     13     74       557.7           5000.           554.7    
    154      1     13     75       520.9           5000.           517.9    
    155      1     13     76       521.3           5000.           518.3    
    156      1     13     77       522.2           5000.           519.2    
    157      1     13     78       521.9           5000.           518.9    
    158      1     14     58       558.7           5000.           555.7    
    159      1     14     59       558.7           5000.           555.7    
    160      1     14     60       558.7           5000.           555.7    
    161      1     14     61       558.7           5000.           555.7    
    162      1     14     62       557.7           5000.           554.7    
    163      1     14     73       557.7           5000.           554.7    
    164      1     14     74       557.7           5000.           554.7    
    165      1     14     76       524.3           5000.           521.3    
    166      1     14     78       523.4           5000.           520.4    
    167      1     14     79       528.7           5000.           525.7    
    168      1     14     80       528.7           5000.           525.7    
    169      1     15     58       558.7           5000.           555.7    
    170      1     15     59       558.7           5000.           555.7    
    171      1     15     62       557.7           5000.           554.7    
    172      1     15     63       557.7           5000.           554.7    
    173      1     15     64       557.7           5000.           554.7    
    174      1     15     65       557.7           5000.           554.7    
    175      1     15     73       557.7           5000.           554.7    
    176      1     15     76       526.0           5000.           523.0    
    177      1     15     78       526.7           5000.           523.7    
    178      1     15     80       528.7           5000.           525.7    
    179      1     16     56       559.0           5000.           556.0    
    180      1     16     57       558.7           5000.           555.7    
    181      1     16     58       558.7           5000.           555.7    
    182      1     16     64       557.7           5000.           554.7    
    183      1     16     65       557.7           5000.           554.7    
    184      1     16     66       557.7           5000.           554.7    
    185      1     16     67       557.7           5000.           554.7    
    186      1     16     68       557.7           5000.           554.7    
    187      1     16     72       557.7           5000.           554.7    
    188      1     16     73       557.7           5000.           554.7    
    189      1     16     76       528.0           5000.           525.0    
    190      1     16     79       528.7           5000.           525.7    
    191      1     16     80       528.7           5000.           525.7    
    192      1     16     82       528.7           5000.           525.7    
    193      1     17     51       569.5           5000.           566.5    
    194      1     17     52       569.3           5000.           566.3    
    195      1     17     53       568.3           5000.           565.3    
    196      1     17     54       567.8           5000.           564.8    
    197      1     17     55       562.7           5000.           559.7    
    198      1     17     56       562.0           5000.           559.0    
    199      1     17     68       557.7           5000.           554.7    
    200      1     17     69       557.7           5000.           554.7    
    201      1     17     70       557.7           5000.           554.7    
    202      1     17     71       557.7           5000.           554.7    
    203      1     17     72       557.7           5000.           554.7    
    204      1     17     76       528.7           5000.           525.7    
    205      1     17     79       528.7           5000.           525.7    
    206      1     17     80       528.7           5000.           525.7    
    207      1     17     81       528.7           5000.           525.7    
    208      1     17     82       528.7           5000.           525.7    
    209      1     17     83       528.7           5000.           525.7    
    210      1     18     51       569.5           5000.           566.5    
    211      1     18     52       569.5           5000.           566.5    
    212      1     18     53       568.3           5000.           565.3    
    213      1     18     67       557.7           5000.           554.7    
    214      1     18     68       557.7           5000.           554.7    
    215      1     18     76       530.4           5000.           527.4    
    216      1     18     77       531.6           5000.           528.6    
    217      1     18     78       537.1           5000.           534.1    
    218      1     18     79       528.7           5000.           525.7    
    219      1     18     80       528.7           5000.           525.7    
    220      1     18     81       528.7           5000.           525.7    
    221      1     18     82       528.7           5000.           525.7    
    222      1     18     83       528.7           5000.           525.7    
    223      1     19      1       579.4           5000.           576.4    
    224      1     19      2       585.7           5000.           582.7    
    225      1     19      3       593.7           5000.           590.7    
    226      1     19     50       573.7           5000.           570.7    
    227      1     19     51       571.8           5000.           568.8    
    228      1     19     67       557.7           5000.           554.7    
    229      1     19     78       538.2           5000.           535.2    
    230      1     19     79       538.5           5000.           535.5    
    231      1     19     83       534.7           5000.           531.7    
    232      1     19     84       537.9           5000.           534.9    
    233      1     20      3       598.7           5000.           595.7    
    234      1     20      4       598.7           5000.           595.7    
    235      1     20      5       641.7           5000.           638.7    
    236      1     20      6       641.7           5000.           638.7    
    237      1     20      7       641.7           5000.           638.7    
    238      1     20      8       641.7           5000.           638.7    
    239      1     20     50       573.7           5000.           570.7    
    240      1     20     66       557.7           5000.           554.7    
    241      1     20     67       557.7           5000.           554.7    
    242      1     20     78       538.5           5000.           535.5    
    243      1     20     79       538.5           5000.           535.5    
    244      1     20     83       537.1           5000.           534.1    
    245      1     20     84       537.7           5000.           534.7    
    246      1     20     85       539.2           5000.           536.2    
    247      1     20     86       539.2           5000.           536.2    
    248      1     20     87       539.2           5000.           536.2    
    249      1     20     88       539.2           5000.           536.2    
    250      1     20     89       539.2           5000.           536.2    
    251      1     20     90       539.2           5000.           536.2    
    252      1     21      8       641.7           5000.           638.7    
    253      1     21     50       578.1           5000.           575.1    
    254      1     21     66       557.7           5000.           554.7    
    255      1     21     67       557.7           5000.           554.7    
    256      1     21     78       538.5           5000.           535.5    
    257      1     21     84       537.7           5000.           534.7    
    258      1     21     85       539.2           5000.           536.2    
    259      1     21     87       539.2           5000.           536.2    
    260      1     21     88       539.2           5000.           536.2    
    261      1     21     89       539.2           5000.           536.2    
    262      1     21     90       539.2           5000.           536.2    
    263      1     21     91       539.2           5000.           536.2    
    264      1     22     49       579.5           5000.           576.5    
    265      1     22     50       579.5           5000.           576.5    
    266      1     22     66       557.7           5000.           554.7    
    267      1     22     67       557.7           5000.           554.7    
    268      1     22     77       541.6           5000.           538.6    
    269      1     22     78       540.5           5000.           537.5    
    270      1     22     85       565.2           5000.           562.2    
    271      1     22     86       577.5           5000.           574.5    
    272      1     22     87       539.2           5000.           536.2    
    273      1     22     88       539.2           5000.           536.2    
    274      1     22     91       539.2           5000.           536.2    
    275      1     22     92       539.2           5000.           536.2    
    276      1     23     48       579.5           5000.           576.5    
    277      1     23     49       579.5           5000.           576.5    
    278      1     23     66       558.7           5000.           555.7    
    279      1     23     76       544.5           5000.           541.5    
    280      1     23     77       543.8           5000.           540.8    
    281      1     23     86       577.9           5000.           574.9    
    282      1     23     91       539.2           5000.           536.2    
    283      1     23     92       539.2           5000.           536.2    
    284      1     24     47       582.5           5000.           579.5    
    285      1     24     48       585.3           5000.           582.3    
    286      1     24     66       558.7           5000.           555.7    
    287      1     24     75       547.0           5000.           544.0    
    288      1     24     76       546.2           5000.           543.2    
    289      1     24     86       584.8           5000.           581.8    
    290      1     24     87       540.5           5000.           537.5    
    291      1     24     88       567.8           5000.           564.8    
    292      1     24     90       539.2           5000.           536.2    
    293      1     24     91       539.2           5000.           536.2    
    294      1     24     92       539.2           5000.           536.2    
    295      1     25     47       583.7           5000.           580.7    
    296      1     25     66       558.7           5000.           555.7    
    297      1     25     75       550.3           5000.           547.3    
    298      1     25     88       584.8           5000.           581.8    
    299      1     25     92       539.2           5000.           536.2    
    300      1     26     46       584.3           5000.           581.3    
    301      1     26     47       584.1           5000.           581.1    
    302      1     26     66       558.7           5000.           555.7    
    303      1     26     67       558.7           5000.           555.7    
    304      1     26     75       555.7           5000.           552.7    
    305      1     26     76       557.7           5000.           554.7    
    306      1     26     88       584.8           5000.           581.8    
    307      1     26     89       584.8           5000.           581.8    
    308      1     27     45       589.4           5000.           586.4    
    309      1     27     46       589.3           5000.           586.3    
    310      1     27     66       558.7           5000.           555.7    
    311      1     27     76       557.7           5000.           554.7    
    312      1     27     89       584.8           5000.           581.8    
    313      1     28     64       563.9           5000.           560.9    
    314      1     28     65       561.6           5000.           558.6    
    315      1     28     66       561.6           5000.           558.6    
    316      1     28     76       558.8           5000.           555.8    
    317      1     29     62       571.0           5000.           568.0    
    318      1     29     63       567.7           5000.           564.7    
    319      1     29     64       565.7           5000.           562.7    
    320      1     29     65       562.5           5000.           559.5    
    321      1     29     76       558.8           5000.           555.8    
    322      1     30     59       578.0           5000.           575.0    
    323      1     30     60       578.0           5000.           575.0    
    324      1     30     61       571.5           5000.           568.5    
    325      1     30     62       571.2           5000.           568.2    
    326      1     30     63       567.8           5000.           564.8    
    327      1     30     76       559.7           5000.           556.7    
    328      1     30     77       562.8           5000.           559.8    

    328 RIVER REACHES

                 RECHARGE =  1.000000E-03
 
 SOLVING FOR HEAD 

 OUTPUT CONTROL FOR STRESS PERIOD    1   TIME STEP    1
    PRINT HEAD FOR ALL LAYERS
    PRINT BUDGET
    SAVE HEAD FOR ALL LAYERS
    SAVE BUDGET
 UBDSV2 SAVING "   CONSTANT HEAD" ON UNIT   1 AT TIME STEP  1, STRESS PERIOD   1
 UBDSV1 SAVING "FLOW RIGHT FACE " ON UNIT   1 AT TIME STEP  1, STRESS PERIOD   1
 UBDSV1 SAVING "FLOW FRONT FACE " ON UNIT   1 AT TIME STEP  1, STRESS PERIOD   1
1
              HEAD IN LAYER   1 AT END OF TIME STEP   1 IN STRESS PERIOD    1
  ---------------------------------------------------------------------------

            1           2           3           4           5           6           7           8           9          10
           11          12          13          14          15          16          17          18          19          20
           21          22          23          24          25          26          27          28          29          30
           31          32          33          34          35          36          37          38          39          40
           41          42          43          44          45          46          47          48          49          50
           51          52          53          54          55          56          57          58          59          60
           61          62          63          64          65          66          67          68          69          70
           71          72          73          74          75          76          77          78          79          80
           81          82          83          84          85          86          87          88          89          90
           91          92
 ........................................................................................................................
   1    601.2       608.3       623.5       634.5       643.3       650.9       657.7       663.9       669.8       675.5    
        681.0       686.5       692.0       697.7       703.4       709.4       715.5       721.7       727.9       734.0    
        739.7       744.8       749.2       752.5       754.5       755.2       754.4       752.1       748.4       743.2    
        736.7       729.0       720.4       711.2       701.7       692.3       683.2       674.4       665.9       657.8    
        650.0       642.6       635.6       629.4       623.6       618.0       612.3       606.0       599.5       593.8    
        588.6       581.6       577.8       574.7       572.2       571.2       571.9       575.2       580.8       583.8    
        585.1       585.2       584.5       583.0       581.0       578.4       575.3       571.8       567.9       563.6    
        559.0       554.0       548.9       543.6       538.5       534.0       531.9       531.0       529.1       528.2    
        528.2       528.5       528.9       529.4       530.3       532.6       534.4       535.8       537.0       537.8    
        538.4       538.7    
   2    608.1       617.4       627.5       636.4       644.3       651.4       657.9       664.0       669.8       675.4    
        680.8       686.2       691.7       697.2       703.0       709.0       715.2       721.5       727.8       734.0    
        740.0       745.4       750.0       753.4       755.6       756.4       755.7       753.4       749.6       744.3    
        737.6       729.7       720.8       711.3       701.4       691.8       682.6       673.8       665.3       657.1    
        649.4       642.0       634.6       628.6       623.2       618.0       612.4       606.2       598.3       593.2    
        590.1       584.6       582.9       578.9       576.4       575.3       576.1       580.1       583.3       585.2    
        586.0       585.8       584.9       583.4       581.2       578.6       575.5       572.0       568.1       563.7    
        559.0       554.0       548.7       543.3       537.6       534.4       533.1       531.6       530.0       528.9    
        529.6       530.2       530.6       530.9       531.0       532.9       534.5       535.8       537.1       537.9    
        538.6       538.9    
   3    621.0       625.7       632.2       639.2       645.9       652.3       658.4       664.2       669.7       675.1    
        680.4       685.6       690.9       696.4       702.1       708.2       714.4       720.9       727.5       734.2    
        740.6       746.5       751.6       755.5       757.9       758.9       758.2       755.9       752.0       746.5    
        739.5       731.1       721.6       711.3       700.7       690.5       681.3       672.7       664.3       655.7    
        648.3       641.1       631.9       626.9       622.5       618.0       613.1       607.7       601.9       597.3    
        593.8       590.6       589.9       587.5       585.5       584.2       584.2       585.5       586.7       587.5    
        587.5       587.0       585.8       584.0       581.8       579.1       575.9       572.3       568.3       563.9    
        559.1       554.0       548.5       542.9       537.7       535.8       534.1       532.3       530.2       529.7    
        530.8       531.6       532.1       532.3       532.0       533.3       534.5       535.8       537.2       538.2    
        538.9       539.2    
   4    629.0       631.8       636.4       641.8       647.6       653.3       658.9       664.3       669.6       674.7    
        679.8       684.7       689.8       695.0       700.7       706.8       713.3       720.0       727.0       734.2    
        741.4       748.3       754.2       758.7       761.5       762.7       762.1       759.8       755.7       749.9    
        742.5       733.4       722.9       711.4       699.4       688.0       679.1       671.2       663.1       652.8    
        646.9       641.8       637.2       636.0       632.5       628.1       623.3       618.1       612.9       608.2    
        604.1       600.7       598.2       595.7       593.4       591.8       590.8       590.6       590.5       590.2    
        589.5       588.5       586.9       584.9       582.5       579.7       576.5       572.8       568.8       564.3    
        559.4       554.0       548.2       541.8       538.1       536.7       534.9       532.9       530.8       530.7    
        532.2       533.2       533.8       534.0       533.8       534.4       535.5       536.7       537.8       538.6    
        539.2       539.6    
   5    633.9       635.9       639.4       644.0       649.0       654.1       659.3       664.3       669.3       674.2    
        679.0       683.5       688.1       693.0       698.6       704.9       711.6       718.6       726.1       734.0    
        742.4       750.8       757.9       763.2       766.5       768.0       767.5       765.2       760.9       754.8    
        746.8       736.8       725.0       711.6       697.4       682.9       675.5       669.6       663.9       658.9    
        658.2       654.7       650.8       647.4       643.2       638.5       633.5       628.2       623.0       618.1    
        613.7       609.7       606.3       603.2       600.5       598.3       596.6       595.3       594.2       593.0    
        591.7       590.1       588.3       586.0       583.5       580.5       577.2       573.5       569.4       564.8    
        559.8       554.3       548.3       542.4       539.9       537.7       535.5       533.5       531.8       532.0    
        533.8       534.9       535.6       535.8       535.6       535.8       536.3       537.4       538.3       539.0    
        539.7       540.0    
   6    636.7       638.2       641.1       645.4       650.0       654.8       659.5       664.2       669.0       673.6    
        678.0       682.0       686.1       689.9       695.6       702.2       709.2       716.5       724.4       733.1    
        743.0       754.4       763.3       769.4       773.2       774.9       774.5       772.2       767.8       761.4    
        752.9       741.9       728.4       712.2       695.5       687.9       687.6       684.1       679.7       675.4    
        672.0       668.0       663.6       659.1       654.3       649.1       643.6       638.1       632.6       627.3    
        622.4       617.9       613.9       610.2       606.9       604.1       601.6       599.5       597.6       595.8    
        593.9       591.9       589.7       587.2       584.5       581.4       578.0       574.3       570.1       565.6    
        560.5       554.7       548.0       543.5       541.2       538.5       535.8       533.5       533.1       534.4    
        535.7       536.8       537.5       537.9       538.1       538.1       537.8       538.1       538.6       539.2    
        540.1       540.6    
   7    637.7       638.8       641.3       646.1       650.7       655.1       659.4       663.8       668.4       673.1    
        677.2       680.3       683.9       684.7       691.6       699.0       706.3       713.7       721.8       730.7    
        741.9       760.3       771.0       777.8       781.9       783.6       783.3       780.9       776.5       769.9    
        761.0       749.4       734.1       713.2       703.8       704.1       702.6       699.3       695.2       690.7    
        686.2       681.4       676.3       671.0       665.4       659.6       653.6       647.6       641.7       635.9    
        630.5       625.5       620.8       616.5       612.7       609.2       606.1       603.3       600.7       598.3    
        596.0       593.6       591.1       588.5       585.6       582.4       579.0       575.3       571.1       566.6    
        561.5       555.9       549.4       545.9       542.6       539.1       535.5       534.2       535.2       536.5    
        537.7       538.7       539.5       540.1       540.4       540.5       540.4       540.1       540.6       541.1    
        541.3       541.5    
   8    637.3       637.7       639.1       646.6       651.4       655.4       659.1       662.8       667.5       672.9    
        677.2       677.7       684.3       692.6       707.3       717.6       726.4       734.7       743.1       752.0    
        762.0       773.5       782.5       788.7       792.5       794.2       793.8       791.4       787.0       780.6    
        771.8       760.2       745.1       725.0       723.4       721.7       719.0       715.2       710.7       705.7    
        700.4       694.8       688.9       682.8       676.5       670.0       663.4       656.8       650.3       644.0    
        638.0       632.4       627.1       622.2       617.7       613.7       609.9       606.6       603.5       600.6    
        597.9       595.2       592.5       589.7       586.7       583.5       580.1       576.3       572.3       567.8    
        562.9       557.6       551.6       548.0       543.7       539.6       536.0       535.4       537.0       538.3    
        539.6       540.7       541.6       542.2       542.7       542.9       542.8       542.5       542.6       542.9    
        542.8       542.9    
   9    653.7       652.5       648.0       649.7       652.6       655.8       658.4       660.6       665.8       673.4    
        680.8       688.7       703.9       715.5       727.3       737.6       746.8       755.3       763.6       771.9    
        780.5       789.1       796.4       801.7       805.1       806.5       806.0       803.6       799.4       793.2    
        785.0       774.4       760.8       742.9       742.7       740.1       736.3       731.7       726.4       720.7    
        714.6       708.3       701.6       694.7       687.6       680.3       673.0       665.7       658.5       651.5    
        644.9       638.6       632.7       627.3       622.2       617.5       613.2       609.3       605.8       602.5    
        599.4       596.5       593.7       590.8       587.7       584.6       581.2       577.5       573.6       569.2    
        564.6       559.6       554.6       549.8       544.6       539.2       536.7       537.4       538.7       540.1    
        541.4       542.5       543.6       544.4       545.0       545.3       545.4       545.2       544.7       544.9    
        544.7       545.0    
  10    671.0       670.6       669.8       671.0       673.3       675.8       677.3       675.2       680.7       694.6    
        704.9       715.0       726.7       737.9       748.6       758.5       767.5       775.9       783.8       791.4    
        798.5       805.8       812.0       816.5       819.4       820.5       819.9       817.5       813.5       807.8    
        800.3       791.2       780.7       770.0       764.3       759.3       754.1       748.5       742.4       735.9    
        729.0       721.7       714.2       706.5       698.5       690.4       682.3       674.2       666.2       658.5    
        651.2       644.2       637.7       631.6       626.0       620.7       615.9       611.5       607.5       603.9    
        600.6       597.6       594.6       591.7       588.7       585.6       582.3       578.8       574.9       570.8    
        566.3       561.5       556.5       551.2       545.5       539.6       537.4       538.7       540.1       541.6    
        543.0       544.3       545.5       546.5       547.2       547.7       547.9       547.8       547.2       547.1    
        547.0       547.1    
  11    688.4       688.7       689.3       691.0       693.6       696.6       699.7       702.9       709.4       719.2    
        729.2       739.3       750.0       760.4       770.5       779.9       788.7       796.8       804.2       810.9    
        816.2       823.5       828.9       832.8       835.1       835.9       835.2       832.9       829.0       823.7    
        817.1       809.2       800.5       792.0       785.0       778.5       772.2       765.5       758.5       751.1    
        743.4       735.3       726.9       718.2       709.3       700.3       691.2       682.2       673.4       664.9    
        656.8       649.1       642.0       635.3       629.1       623.3       617.9       612.9       608.5       604.7    
        601.4       598.3       595.3       592.5       589.6       586.6       583.4       580.0       576.4       572.4    
        568.0       563.3       558.2       552.7       546.3       540.4       538.2       539.5       541.2       542.9    
        544.5       546.0       547.4       548.5       549.5       550.2       550.6       550.7       550.7       550.7    
        550.7       550.7    
  12    705.4       706.1       707.5       709.9       713.1       717.1       721.7       727.2       734.4       743.3    
        753.0       763.0       773.1       783.1       792.7       801.8       810.3       818.1       825.1       831.5    
        837.1       842.6       847.1       850.3       852.2       852.7       851.8       849.5       845.8       840.9    
        834.8       827.7       820.0       812.2       804.7       797.5       790.2       782.6       774.8       766.5    
        757.9       748.9       739.5       729.9       720.0       710.0       699.9       689.9       680.1       670.6    
        661.7       653.3       645.6       638.4       631.6       625.2       619.1       613.5       608.8       604.9    
        601.5       598.5       595.8       593.0       590.3       587.4       584.5       581.3       577.9       574.1    
        569.9       565.3       560.0       554.1       546.5       541.5       539.3       539.5       542.1       544.1    
        545.9       547.7       549.2       550.6       551.7       552.6       553.2       553.6       553.8       554.0    
        554.1       554.1    
  13    721.5       722.5       724.5       727.6       731.7       736.7       742.5       749.4       757.4       766.5    
        776.2       786.2       796.2       805.9       815.3       824.1       832.3       839.8       846.5       852.6    
        857.9       862.6       866.3       869.0       870.4       870.6       869.5       867.2       863.6       858.9    
        853.2       846.5       839.3       831.7       824.0       816.2       808.2       799.9       791.2       782.0    
        772.5       762.5       752.2       741.6       730.6       719.5       708.3       697.1       686.2       675.6    
        665.7       656.6       648.3       640.7       633.5       626.6       619.7       613.0       608.0       604.3    
        601.1       598.2       595.9       593.4       590.8       588.2       585.5       582.6       579.5       576.0    
        572.1       567.5       562.3       556.5       549.0       544.0       541.8       541.2       543.3       545.1    
        547.2       549.2       551.0       552.6       554.0       555.1       555.9       556.4       556.8       557.1    
        557.2       557.3    
  14    736.4       737.7       740.2       744.1       749.1       755.1       762.2       770.2       779.1       788.8    
        798.9       809.1       819.2       828.9       838.1       846.7       854.7       861.9       868.4       874.1    
        879.1       883.2       886.4       888.6       889.6       889.5       888.3       885.9       882.3       877.7    
        872.2       865.8       858.7       851.1       843.2       834.9       826.3       817.2       807.7       797.7    
        787.3       776.4       765.0       753.2       741.2       728.8       716.4       703.9       691.6       679.7    
        668.6       658.8       650.1       642.4       635.0       627.6       619.9       610.4       605.7       603.0    
        600.2       597.1       596.1       593.6       591.0       588.9       586.5       583.9       581.2       578.2    
        574.5       570.2       565.0       560.0       554.2       548.2       546.3       544.0       544.4       545.5    
        548.4       550.6       552.7       554.6       556.3       557.5       558.5       559.2       559.7       560.0    
        560.2       560.3    
  15    749.7       751.3       754.4       759.1       765.2       772.3       780.6       789.8       799.9       810.5    
        821.3       831.9       842.3       852.1       861.3       869.8       877.6       884.6       890.8       896.2    
        900.8       904.5       907.2       909.0       909.7       909.4       908.0       905.4       901.9       897.3    
        891.8       885.4       878.4       870.7       862.5       853.8       844.5       834.8       824.5       813.7    
        802.3       790.3       777.9       765.0       751.7       738.1       724.2       710.2       696.3       682.7    
        670.1       659.5       650.9       643.4       636.2       628.6       621.6       613.3       610.4       610.5    
        607.5       601.5       597.5       593.5       590.6       589.5       587.3       585.1       583.1       580.7    
        577.5       573.4       568.7       564.7       559.3       552.9       550.9       547.9       547.6       547.4    
        549.9       552.0       554.4       556.7       558.6       560.1       561.2       561.9       562.5       562.8    
        563.1       563.2    
  16    761.1       763.0       766.9       772.6       779.8       788.2       797.8       808.4       819.9       831.7    
        843.5       854.9       865.6       875.7       884.9       893.4       901.0       907.8       913.8       918.9    
        923.1       926.4       928.8       930.3       930.7       930.1       928.5       925.8       922.1       917.5    
        911.9       905.6       898.4       890.5       882.0       872.8       863.1       852.7       841.6       829.9    
        817.6       804.6       791.0       776.9       762.3       747.3       731.9       716.3       700.4       684.5    
        669.3       658.2       650.2       643.9       637.5       628.7       624.4       621.3       622.2       620.9    
        617.5       612.4       606.7       599.3       594.5       591.1       588.0       585.6       585.3       583.7    
        581.0       577.0       573.7       570.4       565.1       558.2       556.1       553.3       550.4       549.9    
        551.8       552.6       555.9       558.9       561.2       562.8       563.9       564.6       565.1       565.5    
        565.8       566.0    
  17    770.4       772.6       777.2       784.4       793.1       802.8       813.6       825.8       839.2       852.8    
        865.9       878.1       889.4       899.8       909.1       917.6       925.1       931.7       937.4       942.2    
        946.1       949.1       951.1       952.3       952.4       951.6       949.7       946.9       943.1       938.4    
        932.7       926.2       918.9       910.8       901.9       892.3       882.0       870.9       859.1       846.5    
        833.2       819.2       804.4       789.1       773.1       756.7       739.7       722.3       704.2       685.3    
        664.3       653.4       647.4       644.4       640.9       637.8       639.1       637.6       636.0       633.2    
        629.0       623.5       617.3       610.5       604.3       598.8       593.7       589.4       588.5       587.4    
        585.7       583.4       581.7       577.9       572.2       564.5       561.9       558.6       554.9       554.0    
        554.5       555.4       557.5       561.6       564.2       565.7       566.7       567.3       567.7       568.1    
        568.4       568.6    
  18    777.3       779.4       784.6       794.6       805.0       815.9       827.9       841.9       858.1       874.1    
        888.8       902.1       914.0       924.6       934.0       942.4       949.7       956.1       961.6       966.1    
        969.7       972.4       974.2       975.0       974.9       973.8       971.8       968.7       964.8       959.9    
        954.1       947.4       939.9       931.5       922.3       912.2       901.4       889.7       877.1       863.6    
        849.3       834.2       818.3       801.6       784.2       766.2       747.7       728.6       708.7       687.8    
        667.9       660.1       657.4       660.3       659.4       657.6       656.2       653.8       650.7       646.6    
        641.4       635.2       628.3       620.8       613.2       605.8       598.2       596.1       597.6       597.5    
        596.4       594.3       591.4       587.2       581.1       572.7       567.9       564.2       561.6       561.5    
        561.8       562.0       562.4       565.7       567.9       569.1       569.6       569.8       570.1       570.5    
        570.9       571.3    
  19    781.9       783.0       786.7       804.1       816.3       827.5       839.8       855.6       876.9       896.3    
        912.9       927.2       939.6       950.3       959.7       968.0       975.1       981.3       986.4       990.7    
        994.0       996.4       997.9       998.4       998.0       996.7       994.5       991.3       987.2       982.1    
        976.1       969.2       961.5       952.8       943.2       932.8       921.4       909.0       895.7       881.4    
        866.1       849.8       832.6       814.5       795.6       776.1       756.1       735.5       713.8       689.2    
        678.7       679.7       679.4       679.7       678.7       676.6       674.0       670.5       666.2       660.9    
        654.6       647.5       639.5       630.9       621.8       612.6       605.3       606.7       608.1       608.5    
        607.6       605.6       602.4       597.9       592.2       585.6       579.7       573.6       572.3       574.9    
        575.7       574.6       571.1       570.7       572.5       572.8       572.4       572.1       572.1       572.5    
        573.4       573.9    
  20    825.6       823.2       813.6       818.6       828.5       837.7       848.2       863.3       897.5       921.1    
        939.2       954.0       966.5       977.2       986.4       994.4       1001.       1007.       1012.       1016.    
        1019.       1021.       1022.       1023.       1022.       1020.       1018.       1015.       1010.       1005.    
        998.8       991.7       983.7       974.8       964.8       954.0       942.0       929.1       915.0       899.9    
        883.5       866.1       847.5       827.9       807.4       786.3       764.8       743.2       721.7       699.4    
        699.2       700.3       700.6       700.3       698.7       696.0       692.4       687.8       682.3       675.8    
        668.5       660.3       651.2       641.2       630.1       617.4       612.8       616.9       619.5       620.4    
        619.8       617.8       614.3       609.6       603.8       597.6       591.5       585.1       585.6       589.9    
        591.1       589.3       583.6       579.9       578.1       577.0       575.0       573.8       573.5       573.7    
        575.9       576.9    
  21    871.4       870.4       868.7       871.9       878.3       885.7       892.9       896.2       928.4       951.0    
        968.5       982.8       994.9       1005.       1014.       1022.       1028.       1034.       1038.       1042.    
        1045.       1046.       1047.       1047.       1046.       1045.       1042.       1038.       1034.       1029.    
        1022.       1015.       1007.       997.4       987.2       975.9       963.5       950.0       935.3       919.2    
        901.9       883.2       863.2       841.9       819.6       796.5       773.3       750.8       729.8       712.5    
        718.2       721.3       722.3       721.7       719.6       716.1       711.5       705.8       699.1       691.5    
        683.0       673.7       663.5       652.3       639.9       625.7       622.3       628.5       632.1       633.7    
        633.3       631.1       627.3       622.0       615.7       609.3       603.4       598.9       604.0       607.9    
        609.3       607.8       603.1       595.4       590.8       589.1       583.8       581.4       580.7       579.8    
        579.1       580.8    
  22    917.9       918.0       918.7       921.8       926.9       933.5       941.2       950.8       968.7       985.9    
        1001.       1014.       1025.       1034.       1043.       1050.       1056.       1061.       1065.       1068.    
        1071.       1072.       1073.       1073.       1072.       1070.       1067.       1063.       1058.       1053.    
        1046.       1039.       1030.       1021.       1010.       998.7       985.9       971.9       956.5       939.7    
        921.4       901.4       879.8       856.7       832.2       806.7       781.0       756.5       734.1       729.2    
        739.7       744.2       745.4       744.4       741.5       737.1       731.4       724.5       716.6       707.7    
        698.1       687.7       676.5       664.5       651.3       636.6       634.8       642.3       646.6       648.6    
        648.3       645.9       641.4       635.1       627.6       620.1       613.6       615.0       623.4       628.2    
        630.1       629.2       625.5       619.1       610.6       604.7       598.4       595.6       596.3       593.5    
        587.8       586.0    
  23    964.1       964.7       966.2       969.2       973.8       979.9       987.4       996.9       1009.       1023.    
        1035.       1046.       1056.       1065.       1072.       1079.       1084.       1089.       1093.       1096.    
        1098.       1099.       1099.       1099.       1097.       1095.       1092.       1088.       1083.       1078.    
        1071.       1063.       1055.       1045.       1034.       1022.       1009.       994.9       979.0       961.4    
        942.2       921.0       897.8       872.6       845.5       816.9       787.2       759.7       751.6       760.2    
        766.8       770.0       770.5       768.6       764.7       759.2       752.3       744.0       734.7       724.6    
        713.7       702.2       690.1       677.5       664.1       649.9       653.4       659.0       663.3       665.5    
        665.3       662.5       657.1       649.1       639.1       629.8       630.1       638.8       646.1       651.0    
        653.4       653.2       650.2       644.6       636.5       626.1       620.9       617.2       615.1       610.0    
        601.9       598.6    
  24    1009.       1010.       1012.       1015.       1019.       1025.       1031.       1040.       1049.       1060.    
        1070.       1079.       1088.       1096.       1103.       1109.       1114.       1118.       1121.       1124.    
        1125.       1126.       1126.       1125.       1124.       1121.       1118.       1114.       1109.       1103.    
        1096.       1089.       1080.       1070.       1059.       1047.       1034.       1019.       1003.       984.7    
        964.7       942.4       917.6       890.2       860.2       827.8       791.1       779.1       786.8       792.9    
        797.0       798.5       797.6       794.5       789.4       782.5       774.1       764.4       753.5       741.9    
        729.6       717.0       704.1       691.0       677.5       663.4       669.8       676.5       681.8       684.7    
        684.6       681.5       675.0       664.8       649.7       646.6       655.2       663.7       670.9       676.2    
        679.1       679.6       677.4       672.5       664.3       651.6       641.7       636.9       636.7       629.1    
        623.6       619.6    
  25    1054.       1054.       1056.       1059.       1063.       1068.       1074.       1081.       1089.       1097.    
        1105.       1113.       1121.       1128.       1134.       1139.       1143.       1147.       1150.       1152.    
        1153.       1154.       1154.       1153.       1151.       1148.       1145.       1141.       1135.       1129.    
        1123.       1115.       1106.       1096.       1085.       1073.       1059.       1045.       1028.       1010.    
        989.1       966.0       939.8       910.1       877.0       842.7       811.8       817.4       823.3       827.4    
        829.4       829.2       826.7       822.1       815.6       807.2       797.1       785.6       772.9       759.5    
        745.7       731.8       718.0       704.6       691.2       677.2       685.4       695.4       702.6       706.4    
        706.8       703.5       696.5       685.2       668.8       671.4       680.3       689.5       697.5       703.5    
        707.1       708.4       707.1       703.2       696.6       687.4       677.2       665.7       665.3       663.9    
        660.4       652.4    
  26    1097.       1098.       1099.       1102.       1105.       1109.       1115.       1121.       1127.       1134.    
        1141.       1148.       1154.       1160.       1165.       1170.       1173.       1177.       1179.       1181.    
        1182.       1182.       1182.       1180.       1178.       1176.       1172.       1168.       1162.       1156.    
        1149.       1142.       1133.       1123.       1112.       1100.       1086.       1071.       1055.       1037.    
        1016.       992.4       965.3       933.2       894.8       854.0       841.5       855.2       861.3       863.8    
        863.9       861.8       857.7       851.5       843.3       833.2       821.2       807.6       792.8       777.3    
        761.6       746.1       731.5       717.8       705.4       692.1       699.2       716.6       726.5       731.4    
        732.2       729.1       722.0       710.3       692.4       689.6       704.7       716.5       725.8       732.8    
        737.3       739.4       739.1       736.4       731.3       723.9       713.9       699.3       694.7       700.7    
        701.4       699.6    
  27    1139.       1140.       1141.       1143.       1146.       1150.       1155.       1160.       1165.       1171.    
        1177.       1182.       1188.       1193.       1197.       1201.       1204.       1207.       1209.       1210.    
        1211.       1211.       1210.       1209.       1206.       1204.       1200.       1195.       1190.       1184.    
        1177.       1169.       1160.       1150.       1140.       1128.       1114.       1100.       1083.       1065.    
        1045.       1022.       995.5       962.2       914.9       890.6       896.0       900.5       902.5       902.3    
        900.2       896.3       890.4       882.7       872.8       860.9       846.7       830.6       813.1       795.0    
        777.0       759.5       743.7       729.5       720.2       713.2       730.4       745.2       755.1       760.3    
        761.4       758.5       751.9       741.4       728.0       715.9       732.2       745.6       756.2       764.2    
        769.6       772.6       773.3       771.8       768.2       762.6       755.1       745.6       735.2       742.4    
        744.6       744.8    
  28    1180.       1181.       1182.       1184.       1187.       1190.       1194.       1198.       1202.       1207.    
        1212.       1217.       1221.       1226.       1229.       1233.       1235.       1237.       1239.       1240.    
        1240.       1240.       1239.       1237.       1235.       1232.       1228.       1224.       1218.       1212.    
        1205.       1197.       1189.       1179.       1168.       1156.       1143.       1129.       1113.       1096.    
        1077.       1056.       1032.       1005.       976.6       957.7       951.0       948.1       945.7       942.5    
        938.1       932.3       924.9       915.6       904.2       890.4       874.0       854.8       833.6       812.5    
        791.7       770.9       754.0       736.0       732.6       740.5       763.7       778.6       788.0       793.0    
        794.1       791.5       785.3       775.4       761.9       745.4       762.3       777.2       789.1       798.0    
        804.2       807.9       809.4       808.9       806.7       802.9       798.0       792.5       788.1       788.8    
        789.6       789.8    
  29    1220.       1221.       1222.       1224.       1226.       1229.       1232.       1235.       1239.       1243.    
        1247.       1251.       1255.       1259.       1262.       1264.       1267.       1268.       1270.       1270.    
        1270.       1270.       1268.       1267.       1264.       1261.       1257.       1252.       1247.       1241.    
        1234.       1226.       1218.       1208.       1198.       1186.       1174.       1160.       1145.       1129.    
        1111.       1092.       1071.       1049.       1029.       1012.       1002.       995.1       989.3       983.6    
        977.2       969.8       961.0       950.4       937.7       922.4       903.7       880.8       853.6       829.5    
        806.3       778.0       765.2       762.1       767.5       788.3       805.0       817.2       825.1       829.4    
        830.3       827.9       822.1       812.6       798.6       778.5       794.3       811.5       824.8       834.3    
        840.9       845.1       847.2       847.6       846.5       844.3       841.2       838.0       835.6       834.9    
        834.9       834.9    
  30    1260.       1260.       1261.       1263.       1265.       1267.       1270.       1273.       1276.       1279.    
        1283.       1286.       1289.       1292.       1294.       1297.       1298.       1300.       1300.       1301.    
        1300.       1300.       1298.       1296.       1294.       1290.       1286.       1282.       1276.       1270.    
        1263.       1256.       1247.       1238.       1228.       1217.       1205.       1192.       1177.       1162.    
        1146.       1129.       1111.       1093.       1075.       1061.       1050.       1041.       1033.       1025.    
        1017.       1008.       998.5       987.1       973.6       957.5       937.5       911.0       870.2       845.2    
        825.9       810.7       805.9       818.9       827.8       839.7       850.8       859.6       865.7       869.0    
        869.6       867.4       862.4       854.0       841.1       819.3       824.6       849.5       863.8       873.3    
        879.8       884.1       886.5       887.5       887.3       886.1       884.4       882.5       881.0       880.2    
        879.9       879.8    
  31    1299.       1299.       1300.       1301.       1303.       1305.       1307.       1309.       1312.       1315.    
        1317.       1320.       1323.       1325.       1327.       1329.       1330.       1331.       1332.       1332.    
        1331.       1330.       1328.       1326.       1323.       1320.       1316.       1311.       1306.       1300.    
        1293.       1286.       1277.       1268.       1259.       1248.       1236.       1224.       1211.       1197.    
        1182.       1166.       1150.       1135.       1120.       1106.       1095.       1085.       1075.       1067.    
        1058.       1048.       1037.       1026.       1012.       996.2       977.5       955.1       929.3       908.3    
        892.0       880.6       876.1       879.5       884.8       891.7       898.7       904.6       908.8       911.1    
        911.3       909.5       905.7       899.8       892.2       884.8       887.3       897.9       907.5       915.1    
        920.7       924.6       927.1       928.4       928.7       928.3       927.4       926.3       925.4       924.8    
        924.4       924.3    
  32    1337.       1337.       1338.       1339.       1340.       1342.       1343.       1346.       1348.       1350.    
        1352.       1354.       1357.       1358.       1360.       1361.       1362.       1363.       1363.       1363.    
        1362.       1361.       1359.       1357.       1354.       1350.       1346.       1341.       1336.       1330.    
        1324.       1316.       1308.       1299.       1290.       1280.       1269.       1257.       1245.       1232.    
        1218.       1204.       1190.       1175.       1162.       1149.       1138.       1127.       1118.       1108.    
        1098.       1088.       1077.       1065.       1052.       1037.       1021.       1002.       983.4       966.5    
        953.0       943.3       938.3       937.8       939.9       943.4       947.4       950.9       953.6       954.9    
        954.9       953.5       950.7       947.0       942.9       940.2       941.7       947.0       953.0       958.5    
        963.0       966.3       968.6       970.0       970.7       970.7       970.3       969.8       969.2       968.8    
        968.5       968.4    
  33    1374.       1374.       1375.       1376.       1377.       1378.       1380.       1381.       1383.       1385.    
        1387.       1389.       1390.       1392.       1393.       1394.       1394.       1395.       1395.       1394.    
        1393.       1392.       1390.       1387.       1384.       1381.       1377.       1372.       1367.       1361.    
        1354.       1347.       1339.       1331.       1322.       1312.       1302.       1291.       1279.       1267.    
        1254.       1241.       1228.       1215.       1203.       1191.       1180.       1169.       1159.       1149.    
        1139.       1129.       1118.       1107.       1094.       1080.       1066.       1050.       1035.       1021.    
        1010.       1001.       995.8       993.4       993.2       994.4       996.2       998.0       999.3       999.9    
        999.7       998.5       996.6       994.3       992.1       991.0       992.0       995.0       998.9       1003.    
        1006.       1009.       1011.       1012.       1013.       1013.       1013.       1013.       1013.       1012.    
        1012.       1012.    
  34    1411.       1411.       1412.       1412.       1413.       1414.       1416.       1417.       1418.       1420.    
        1421.       1423.       1424.       1425.       1426.       1426.       1427.       1427.       1426.       1426.    
        1424.       1423.       1421.       1418.       1415.       1411.       1407.       1403.       1398.       1392.    
        1386.       1379.       1371.       1363.       1354.       1345.       1335.       1325.       1314.       1302.    
        1291.       1279.       1267.       1255.       1243.       1232.       1221.       1211.       1200.       1190.    
        1180.       1170.       1159.       1148.       1136.       1124.       1111.       1098.       1085.       1073.    
        1063.       1055.       1050.       1047.       1045.       1045.       1045.       1045.       1046.       1046.    
        1045.       1044.       1043.       1041.       1040.       1039.       1040.       1042.       1045.       1047.    
        1050.       1052.       1053.       1055.       1055.       1056.       1056.       1056.       1056.       1056.    
        1056.       1056.    
  35    1447.       1447.       1448.       1448.       1449.       1450.       1451.       1452.       1453.       1454.    
        1455.       1457.       1457.       1458.       1459.       1459.       1459.       1459.       1458.       1457.    
        1456.       1454.       1452.       1449.       1446.       1443.       1438.       1434.       1429.       1423.    
        1417.       1410.       1403.       1395.       1387.       1378.       1369.       1359.       1349.       1338.    
        1327.       1316.       1305.       1294.       1283.       1272.       1261.       1251.       1241.       1231.    
        1221.       1211.       1201.       1190.       1179.       1168.       1156.       1145.       1134.       1123.    
        1115.       1107.       1102.       1098.       1095.       1094.       1093.       1092.       1092.       1091.    
        1091.       1090.       1089.       1087.       1087.       1086.       1087.       1088.       1090.       1092.    
        1093.       1095.       1096.       1097.       1098.       1098.       1099.       1099.       1099.       1099.    
        1099.       1099.    
  36    1483.       1483.       1484.       1484.       1485.       1485.       1486.       1487.       1488.       1489.    
        1490.       1490.       1491.       1491.       1492.       1492.       1491.       1491.       1490.       1489.    
        1488.       1486.       1483.       1481.       1477.       1474.       1470.       1465.       1460.       1455.    
        1449.       1442.       1435.       1428.       1420.       1412.       1403.       1393.       1384.       1374.    
        1363.       1353.       1343.       1332.       1322.       1311.       1301.       1292.       1282.       1272.    
        1262.       1253.       1243.       1232.       1222.       1212.       1201.       1191.       1181.       1172.    
        1164.       1157.       1152.       1147.       1144.       1142.       1140.       1139.       1138.       1137.    
        1136.       1135.       1134.       1133.       1133.       1132.       1133.       1133.       1134.       1136.    
        1137.       1138.       1139.       1140.       1141.       1141.       1141.       1141.       1142.       1142.    
        1142.       1142.    
  37    1519.       1519.       1519.       1519.       1520.       1520.       1521.       1522.       1522.       1523.    
        1523.       1524.       1524.       1525.       1525.       1524.       1524.       1523.       1522.       1521.    
        1519.       1517.       1515.       1512.       1509.       1505.       1501.       1497.       1492.       1487.    
        1481.       1475.       1468.       1461.       1453.       1445.       1437.       1428.       1419.       1409.    
        1400.       1390.       1380.       1370.       1360.       1351.       1341.       1331.       1322.       1313.    
        1303.       1294.       1284.       1275.       1265.       1255.       1246.       1236.       1227.       1219.    
        1212.       1205.       1200.       1196.       1192.       1189.       1187.       1186.       1184.       1183.    
        1182.       1180.       1179.       1179.       1178.       1178.       1178.       1178.       1179.       1180.    
        1180.       1181.       1182.       1183.       1183.       1184.       1184.       1184.       1184.       1184.    
        1184.       1184.    
  38    1554.       1554.       1554.       1554.       1555.       1555.       1555.       1556.       1556.       1557.    
        1557.       1557.       1558.       1558.       1557.       1557.       1556.       1556.       1554.       1553.    
        1551.       1549.       1547.       1544.       1541.       1537.       1533.       1529.       1524.       1519.    
        1513.       1507.       1501.       1494.       1486.       1479.       1471.       1463.       1454.       1445.    
        1436.       1427.       1417.       1408.       1399.       1389.       1380.       1371.       1362.       1353.    
        1344.       1335.       1326.       1317.       1307.       1298.       1290.       1281.       1273.       1265.    
        1259.       1252.       1247.       1243.       1239.       1236.       1233.       1231.       1230.       1228.    
        1227.       1225.       1224.       1223.       1223.       1222.       1222.       1222.       1223.       1223.    
        1224.       1224.       1225.       1225.       1226.       1226.       1226.       1226.       1226.       1226.    
        1226.       1226.    
  39    1589.       1589.       1589.       1589.       1589.       1589.       1590.       1590.       1590.       1591.    
        1591.       1591.       1591.       1591.       1590.       1590.       1589.       1588.       1587.       1585.    
        1583.       1581.       1579.       1576.       1573.       1569.       1565.       1561.       1556.       1551.    
        1546.       1540.       1534.       1527.       1520.       1513.       1505.       1497.       1489.       1481.    
        1472.       1463.       1454.       1446.       1437.       1428.       1419.       1410.       1401.       1393.    
        1384.       1375.       1367.       1358.       1350.       1341.       1333.       1325.       1318.       1311.    
        1304.       1298.       1293.       1289.       1285.       1282.       1279.       1277.       1275.       1273.    
        1271.       1270.       1269.       1268.       1267.       1266.       1266.       1266.       1266.       1266.    
        1267.       1267.       1267.       1268.       1268.       1268.       1268.       1268.       1268.       1269.    
        1269.       1269.    
  40    1623.       1623.       1623.       1623.       1623.       1624.       1624.       1624.       1624.       1624.    
        1624.       1624.       1624.       1624.       1623.       1622.       1621.       1620.       1619.       1617.    
        1615.       1613.       1611.       1608.       1605.       1601.       1597.       1593.       1588.       1583.    
[...]
        4339.       4339.       4339.       4339.       4339.       4339.       4339.       4339.       4339.       4339.    
        4339.       4339.    
 178    4347.       4347.       4347.       4347.       4347.       4347.       4347.       4347.       4347.       4347.    
        4347.       4347.       4347.       4347.       4347.       4347.       4347.       4347.       4346.       4346.    
        4346.       4346.       4346.       4346.       4346.       4346.       4346.       4346.       4346.       4346.    
        4346.       4346.       4346.       4346.       4346.       4345.       4345.       4345.       4345.       4345.    
        4345.       4345.       4345.       4345.       4345.       4345.       4345.       4345.       4344.       4344.    
        4344.       4344.       4344.       4344.       4344.       4344.       4344.       4344.       4344.       4344.    
        4344.       4344.       4343.       4343.       4343.       4343.       4343.       4343.       4343.       4343.    
        4343.       4343.       4343.       4343.       4343.       4343.       4343.       4343.       4343.       4343.    
        4343.       4343.       4343.       4343.       4343.       4342.       4342.       4342.       4342.       4342.    
        4342.       4342.    
 179    4350.       4350.       4350.       4350.       4350.       4350.       4350.       4350.       4350.       4350.    
        4350.       4350.       4350.       4350.       4350.       4350.       4350.       4350.       4350.       4350.    
        4350.       4350.       4350.       4350.       4350.       4350.       4350.       4349.       4349.       4349.    
        4349.       4349.       4349.       4349.       4349.       4349.       4349.       4349.       4349.       4349.    
        4349.       4348.       4348.       4348.       4348.       4348.       4348.       4348.       4348.       4348.    
        4348.       4348.       4348.       4348.       4348.       4347.       4347.       4347.       4347.       4347.    
        4347.       4347.       4347.       4347.       4347.       4347.       4347.       4347.       4347.       4347.    
        4347.       4346.       4346.       4346.       4346.       4346.       4346.       4346.       4346.       4346.    
        4346.       4346.       4346.       4346.       4346.       4346.       4346.       4346.       4346.       4346.    
        4346.       4346.    
 180    4354.       4354.       4354.       4354.       4354.       4354.       4354.       4354.       4353.       4353.    
        4353.       4353.       4353.       4353.       4353.       4353.       4353.       4353.       4353.       4353.    
        4353.       4353.       4353.       4353.       4353.       4353.       4353.       4353.       4353.       4353.    
        4353.       4352.       4352.       4352.       4352.       4352.       4352.       4352.       4352.       4352.    
        4352.       4352.       4352.       4352.       4352.       4351.       4351.       4351.       4351.       4351.    
        4351.       4351.       4351.       4351.       4351.       4351.       4351.       4351.       4351.       4350.    
        4350.       4350.       4350.       4350.       4350.       4350.       4350.       4350.       4350.       4350.    
        4350.       4350.       4350.       4350.       4350.       4350.       4350.       4350.       4349.       4349.    
        4349.       4349.       4349.       4349.       4349.       4349.       4349.       4349.       4349.       4349.    
        4349.       4349.    
 181    4357.       4357.       4357.       4357.       4357.       4357.       4356.       4356.       4356.       4356.    
        4356.       4356.       4356.       4356.       4356.       4356.       4356.       4356.       4356.       4356.    
        4356.       4356.       4356.       4356.       4356.       4356.       4356.       4356.       4356.       4356.    
        4355.       4355.       4355.       4355.       4355.       4355.       4355.       4355.       4355.       4355.    
        4355.       4355.       4355.       4355.       4355.       4354.       4354.       4354.       4354.       4354.    
        4354.       4354.       4354.       4354.       4354.       4354.       4354.       4354.       4354.       4353.    
        4353.       4353.       4353.       4353.       4353.       4353.       4353.       4353.       4353.       4353.    
        4353.       4353.       4353.       4353.       4353.       4353.       4353.       4353.       4352.       4352.    
        4352.       4352.       4352.       4352.       4352.       4352.       4352.       4352.       4352.       4352.    
        4352.       4352.    
 182    4359.       4359.       4359.       4359.       4359.       4359.       4359.       4359.       4359.       4359.    
        4359.       4359.       4359.       4359.       4359.       4359.       4359.       4359.       4359.       4359.    
        4359.       4359.       4359.       4359.       4359.       4359.       4358.       4358.       4358.       4358.    
        4358.       4358.       4358.       4358.       4358.       4358.       4358.       4358.       4358.       4358.    
        4358.       4357.       4357.       4357.       4357.       4357.       4357.       4357.       4357.       4357.    
        4357.       4357.       4357.       4357.       4357.       4356.       4356.       4356.       4356.       4356.    
        4356.       4356.       4356.       4356.       4356.       4356.       4356.       4356.       4356.       4356.    
        4356.       4356.       4356.       4355.       4355.       4355.       4355.       4355.       4355.       4355.    
        4355.       4355.       4355.       4355.       4355.       4355.       4355.       4355.       4355.       4355.    
        4355.       4355.    
 183    4362.       4362.       4362.       4362.       4362.       4362.       4362.       4362.       4362.       4362.    
        4362.       4362.       4362.       4362.       4361.       4361.       4361.       4361.       4361.       4361.    
        4361.       4361.       4361.       4361.       4361.       4361.       4361.       4361.       4361.       4361.    
        4361.       4361.       4361.       4361.       4360.       4360.       4360.       4360.       4360.       4360.    
        4360.       4360.       4360.       4360.       4360.       4360.       4360.       4360.       4359.       4359.    
        4359.       4359.       4359.       4359.       4359.       4359.       4359.       4359.       4359.       4359.    
        4359.       4359.       4359.       4358.       4358.       4358.       4358.       4358.       4358.       4358.    
        4358.       4358.       4358.       4358.       4358.       4358.       4358.       4358.       4358.       4358.    
        4358.       4358.       4358.       4358.       4358.       4358.       4358.       4358.       4358.       4358.    
        4358.       4358.    
 184    4364.       4364.       4364.       4364.       4364.       4364.       4364.       4364.       4364.       4364.    
        4364.       4364.       4364.       4364.       4364.       4364.       4364.       4364.       4364.       4364.    
        4363.       4363.       4363.       4363.       4363.       4363.       4363.       4363.       4363.       4363.    
        4363.       4363.       4363.       4363.       4363.       4363.       4363.       4363.       4362.       4362.    
        4362.       4362.       4362.       4362.       4362.       4362.       4362.       4362.       4362.       4362.    
        4362.       4362.       4361.       4361.       4361.       4361.       4361.       4361.       4361.       4361.    
        4361.       4361.       4361.       4361.       4361.       4361.       4361.       4361.       4360.       4360.    
        4360.       4360.       4360.       4360.       4360.       4360.       4360.       4360.       4360.       4360.    
        4360.       4360.       4360.       4360.       4360.       4360.       4360.       4360.       4360.       4360.    
        4360.       4360.    
 185    4366.       4366.       4366.       4366.       4366.       4366.       4366.       4366.       4366.       4366.    
        4366.       4366.       4366.       4366.       4366.       4366.       4366.       4366.       4366.       4366.    
        4365.       4365.       4365.       4365.       4365.       4365.       4365.       4365.       4365.       4365.    
        4365.       4365.       4365.       4365.       4365.       4365.       4365.       4364.       4364.       4364.    
        4364.       4364.       4364.       4364.       4364.       4364.       4364.       4364.       4364.       4364.    
        4364.       4364.       4363.       4363.       4363.       4363.       4363.       4363.       4363.       4363.    
        4363.       4363.       4363.       4363.       4363.       4363.       4363.       4363.       4362.       4362.    
        4362.       4362.       4362.       4362.       4362.       4362.       4362.       4362.       4362.       4362.    
        4362.       4362.       4362.       4362.       4362.       4362.       4362.       4362.       4362.       4362.    
        4362.       4362.    
 186    4368.       4368.       4368.       4368.       4368.       4368.       4368.       4368.       4368.       4368.    
        4368.       4368.       4368.       4367.       4367.       4367.       4367.       4367.       4367.       4367.    
        4367.       4367.       4367.       4367.       4367.       4367.       4367.       4367.       4367.       4367.    
        4367.       4367.       4367.       4367.       4366.       4366.       4366.       4366.       4366.       4366.    
        4366.       4366.       4366.       4366.       4366.       4366.       4366.       4366.       4365.       4365.    
        4365.       4365.       4365.       4365.       4365.       4365.       4365.       4365.       4365.       4365.    
        4365.       4365.       4365.       4365.       4364.       4364.       4364.       4364.       4364.       4364.    
        4364.       4364.       4364.       4364.       4364.       4364.       4364.       4364.       4364.       4364.    
        4364.       4364.       4364.       4364.       4364.       4364.       4364.       4364.       4364.       4364.    
        4364.       4364.    
 187    4369.       4369.       4369.       4369.       4369.       4369.       4369.       4369.       4369.       4369.    
        4369.       4369.       4369.       4369.       4369.       4369.       4369.       4369.       4369.       4369.    
        4369.       4369.       4369.       4369.       4369.       4368.       4368.       4368.       4368.       4368.    
        4368.       4368.       4368.       4368.       4368.       4368.       4368.       4368.       4368.       4368.    
        4368.       4367.       4367.       4367.       4367.       4367.       4367.       4367.       4367.       4367.    
        4367.       4367.       4367.       4367.       4367.       4367.       4366.       4366.       4366.       4366.    
        4366.       4366.       4366.       4366.       4366.       4366.       4366.       4366.       4366.       4366.    
        4366.       4366.       4366.       4366.       4365.       4365.       4365.       4365.       4365.       4365.    
        4365.       4365.       4365.       4365.       4365.       4365.       4365.       4365.       4365.       4365.    
        4365.       4365.    
 188    4370.       4370.       4370.       4370.       4370.       4370.       4370.       4370.       4370.       4370.    
        4370.       4370.       4370.       4370.       4370.       4370.       4370.       4370.       4370.       4370.    
        4370.       4370.       4370.       4370.       4370.       4370.       4370.       4370.       4370.       4369.    
        4369.       4369.       4369.       4369.       4369.       4369.       4369.       4369.       4369.       4369.    
        4369.       4369.       4369.       4369.       4369.       4368.       4368.       4368.       4368.       4368.    
        4368.       4368.       4368.       4368.       4368.       4368.       4368.       4368.       4368.       4368.    
        4367.       4367.       4367.       4367.       4367.       4367.       4367.       4367.       4367.       4367.    
        4367.       4367.       4367.       4367.       4367.       4367.       4367.       4367.       4367.       4367.    
        4367.       4367.       4367.       4366.       4366.       4366.       4366.       4366.       4366.       4366.    
        4366.       4366.    
 189    4371.       4371.       4371.       4371.       4371.       4371.       4371.       4371.       4371.       4371.    
        4371.       4371.       4371.       4371.       4371.       4371.       4371.       4371.       4371.       4371.    
        4371.       4371.       4371.       4371.       4371.       4371.       4371.       4371.       4371.       4370.    
        4370.       4370.       4370.       4370.       4370.       4370.       4370.       4370.       4370.       4370.    
        4370.       4370.       4370.       4370.       4370.       4369.       4369.       4369.       4369.       4369.    
        4369.       4369.       4369.       4369.       4369.       4369.       4369.       4369.       4369.       4369.    
        4368.       4368.       4368.       4368.       4368.       4368.       4368.       4368.       4368.       4368.    
        4368.       4368.       4368.       4368.       4368.       4368.       4368.       4368.       4368.       4368.    
        4368.       4368.       4368.       4367.       4367.       4367.       4367.       4367.       4367.       4367.    
        4367.       4367.    
 190    4372.       4372.       4372.       4372.       4372.       4372.       4372.       4372.       4372.       4372.    
        4372.       4372.       4372.       4372.       4372.       4372.       4372.       4372.       4372.       4372.    
        4372.       4372.       4372.       4372.       4371.       4371.       4371.       4371.       4371.       4371.    
        4371.       4371.       4371.       4371.       4371.       4371.       4371.       4371.       4371.       4371.    
        4371.       4370.       4370.       4370.       4370.       4370.       4370.       4370.       4370.       4370.    
        4370.       4370.       4370.       4370.       4370.       4370.       4369.       4369.       4369.       4369.    
        4369.       4369.       4369.       4369.       4369.       4369.       4369.       4369.       4369.       4369.    
        4369.       4369.       4369.       4369.       4369.       4368.       4368.       4368.       4368.       4368.    
        4368.       4368.       4368.       4368.       4368.       4368.       4368.       4368.       4368.       4368.    
        4368.       4368.    
 191    4373.       4373.       4373.       4373.       4373.       4373.       4373.       4373.       4373.       4373.    
        4373.       4372.       4372.       4372.       4372.       4372.       4372.       4372.       4372.       4372.    
        4372.       4372.       4372.       4372.       4372.       4372.       4372.       4372.       4372.       4372.    
        4372.       4372.       4372.       4371.       4371.       4371.       4371.       4371.       4371.       4371.    
        4371.       4371.       4371.       4371.       4371.       4371.       4371.       4371.       4370.       4370.    
        4370.       4370.       4370.       4370.       4370.       4370.       4370.       4370.       4370.       4370.    
        4370.       4370.       4370.       4370.       4369.       4369.       4369.       4369.       4369.       4369.    
        4369.       4369.       4369.       4369.       4369.       4369.       4369.       4369.       4369.       4369.    
        4369.       4369.       4369.       4369.       4369.       4369.       4369.       4369.       4369.       4369.    
        4369.       4369.    
 192    4373.       4373.       4373.       4373.       4373.       4373.       4373.       4373.       4373.       4373.    
        4373.       4373.       4373.       4373.       4373.       4373.       4373.       4373.       4373.       4372.    
        4372.       4372.       4372.       4372.       4372.       4372.       4372.       4372.       4372.       4372.    
        4372.       4372.       4372.       4372.       4372.       4372.       4372.       4371.       4371.       4371.    
        4371.       4371.       4371.       4371.       4371.       4371.       4371.       4371.       4371.       4371.    
        4371.       4371.       4370.       4370.       4370.       4370.       4370.       4370.       4370.       4370.    
        4370.       4370.       4370.       4370.       4370.       4370.       4370.       4370.       4370.       4369.    
        4369.       4369.       4369.       4369.       4369.       4369.       4369.       4369.       4369.       4369.    
        4369.       4369.       4369.       4369.       4369.       4369.       4369.       4369.       4369.       4369.    
        4369.       4369.    

 HEAD WILL BE SAVED ON UNIT   51 AT END OF TIME STEP    1, STRESS PERIOD    1
1
  VOLUMETRIC BUDGET FOR ENTIRE MODEL AT END OF TIME STEP    1, STRESS PERIOD   1
  ------------------------------------------------------------------------------

     CUMULATIVE VOLUMES      L**3       RATES FOR THIS TIME STEP      L**3/T
     ------------------                 ------------------------

           IN:                                      IN:
           ---                                      ---
             STORAGE =           0.0000               STORAGE =           0.0000
       CONSTANT HEAD =           0.0000         CONSTANT HEAD =           0.0000
               WELLS =           0.0000                 WELLS =           0.0000
       RIVER LEAKAGE =       87372.0859         RIVER LEAKAGE =       87372.0859
            RECHARGE =   110400000.0000              RECHARGE =   110400000.0000

            TOTAL IN =   110487376.0000              TOTAL IN =   110487376.0000

          OUT:                                     OUT:
          ----                                     ----
             STORAGE =           0.0000               STORAGE =           0.0000
       CONSTANT HEAD =           0.0000         CONSTANT HEAD =           0.0000
               WELLS =      133000.0000                 WELLS =      133000.0000
       RIVER LEAKAGE =   110354376.0000         RIVER LEAKAGE =   110354376.0000
            RECHARGE =           0.0000              RECHARGE =           0.0000

           TOTAL OUT =   110487376.0000             TOTAL OUT =   110487376.0000

            IN - OUT =           0.0000              IN - OUT =           0.0000

 PERCENT DISCREPANCY =           0.00     PERCENT DISCREPANCY =           0.00






         TIME SUMMARY AT END OF TIME STEP    1 IN STRESS PERIOD    1
                    SECONDS     MINUTES      HOURS       DAYS        YEARS
                    -----------------------------------------------------------
   TIME STEP LENGTH  86400.      1440.0      24.000      1.0000     2.73785E-03
 STRESS PERIOD TIME  86400.      1440.0      24.000      1.0000     2.73785E-03
         TOTAL TIME  86400.      1440.0      24.000      1.0000     2.73785E-03
1

 Run end date and time (yyyy/mm/dd hh:mm:ss): 2020/03/30 17:04:56
 Elapsed run time:  0.149 Seconds

